version 3
run MMSWirelessScalar-3-20221005-16:25:35-16591
attr configname MMSWirelessScalar
attr datetime 20221005-16:25:35
attr datetimef 20221005-162535
attr experiment MMSWirelessScalar
attr inifile omnetpp.ini
attr iterationvars ""
attr iterationvarsd ""
attr iterationvarsf ""
attr measurement ""
attr network MMSWirelessNetworkBase
attr processid 16591
attr repetition 3
attr replication #3
attr resultdir results
attr runnumber 3
attr seedset 3
config image-path ../../../../../../../omnetpp-6.0.1/samples/inet/images
config extends MMSWireless
config *.radioMedium.typename Ieee80211ScalarRadioMedium
config **.wlan[*].radio.typename Ieee80211ScalarRadio
config **.transmitter.power 8mW
config **.wlan*.mac.*.rateSelection.dataFrameBitrate 54Mbps
config **.wlan*.mac.dcf.channelAccess.pendingQueue.packetCapacity 14
config **.displayCommunicationRange true
config network MMSWirelessNetworkBase
config extends MMSBase
config *.server.app[0].connectAddress "\"MMSWirelessNetworkBase.evilClient\""
config *.client[*].app[0].connectAddress "\"MMSWirelessNetworkBase.evilClient\""
config *.client[*].mobility.typename StationaryMobility
config *.client[*].mobility.initFromDisplayString false
config *.client[*].mobility.initialZ 0m
config *.client[0].mobility.initialX 200m
config *.client[0].mobility.initialY 130m
config *.client[1].mobility.initialY 190m
config *.client[1].mobility.initialX 170m
config *.client[2].mobility.initialX 170m
config *.client[2].mobility.initialY 260m
config *.evilClient.mobility.initialX 200m
config *.evilClient.mobility.initialY 320m
config *.visualizer.physicalLinkVisualizer.displayLinks true
config *.server.app[0].typename ServerAsClient
config *.server.app[0].thinkTime "intuniform(45ms, 70ms)"
config *.server.app[0].idleInterval "intuniform(5s, 10s)"
config *.server.app[0].requestLength 30B
config *.server.app[0].replyLength 15B
config *.server.app[0].numRequestsPerSession 2000
config *.server.app[0].replyDelay "intuniform(0ms, 5ms)"
config *.client[*].app[0].typename MmsClient
config *.client[*].app[0].thinkTime "intuniform(45ms, 70ms)"
config *.client[*].app[0].idleInterval "intuniform(5s, 10s)"
config *.client[*].app[0].requestLength 30B
config *.client[*].app[0].replyLength 15B
config *.client[*].app[0].numRequestsPerSession 2000
config *.evilClient.app[0].typename EvilServer
config *.evilClient.app[0].replyDelay "intuniform(0ms, 5ms)"
config *.evilClient.mobility.typename StationaryMobility
config *.evilClient.mobility.initFromDisplayString false
config sim-time-limit 120s
config *.numClients 3
config *.client[*].numApps 1
config *.broker.numApps 1
config *.server.numApps 1
config *.evilClient.numApps 1
config *.client[*].hasTcp true
config *.client[*].hasUdp false
config *.server.hasTcp true
config *.server.hasUdp false
config *.evilClient.hasTcp true
config *.evilClient.hasUdp false
config num-rngs 20
config repeat 20
config seed-set 3

par MMSWirelessNetworkBase.visualizer.sceneVisualizer typename "\"inet.visualizer.canvas.scene.SceneCanvasVisualizer\""
par MMSWirelessNetworkBase.visualizer.sceneVisualizer visualizationTargetModule "\"^.^\""
par MMSWirelessNetworkBase.visualizer.sceneVisualizer visualizationSubjectModule "\"^.^\""
par MMSWirelessNetworkBase.visualizer.sceneVisualizer tags "\"\""
par MMSWirelessNetworkBase.visualizer.sceneVisualizer physicalEnvironmentModule "\"physicalEnvironment\""
par MMSWirelessNetworkBase.visualizer.sceneVisualizer networkNodeVisualizerModule "\"^.networkNodeVisualizer\""
par MMSWirelessNetworkBase.visualizer.sceneVisualizer axisLength "nan m"
attr mutable ""
attr unit m
par MMSWirelessNetworkBase.visualizer.sceneVisualizer animationSpeed 0
par MMSWirelessNetworkBase.visualizer.sceneVisualizer sceneMinX "nan m"
attr unit m
par MMSWirelessNetworkBase.visualizer.sceneVisualizer sceneMinY "nan m"
attr unit m
par MMSWirelessNetworkBase.visualizer.sceneVisualizer sceneMinZ "nan m"
attr unit m
par MMSWirelessNetworkBase.visualizer.sceneVisualizer sceneMaxX "nan m"
attr unit m
par MMSWirelessNetworkBase.visualizer.sceneVisualizer sceneMaxY "nan m"
attr unit m
par MMSWirelessNetworkBase.visualizer.sceneVisualizer sceneMaxZ "nan m"
attr unit m
par MMSWirelessNetworkBase.visualizer.sceneVisualizer zIndex 0
par MMSWirelessNetworkBase.visualizer.sceneVisualizer viewAngle "\"x right y down z out\""
attr mutable ""
par MMSWirelessNetworkBase.visualizer.sceneVisualizer viewScale "\"1 1\""
attr mutable ""
par MMSWirelessNetworkBase.visualizer.sceneVisualizer viewTranslation "\"0 0\""
attr mutable ""
par MMSWirelessNetworkBase.visualizer.sceneVisualizer descriptionFigure "\"\""
par MMSWirelessNetworkBase.visualizer.physicalEnvironmentVisualizer typename "\"inet.visualizer.canvas.environment.PhysicalEnvironmentCanvasVisualizer\""
par MMSWirelessNetworkBase.visualizer.physicalEnvironmentVisualizer visualizationTargetModule "\"^.^\""
par MMSWirelessNetworkBase.visualizer.physicalEnvironmentVisualizer visualizationSubjectModule "\"^.^\""
par MMSWirelessNetworkBase.visualizer.physicalEnvironmentVisualizer tags "\"\""
par MMSWirelessNetworkBase.visualizer.physicalEnvironmentVisualizer physicalEnvironmentModule "\"physicalEnvironment\""
par MMSWirelessNetworkBase.visualizer.physicalEnvironmentVisualizer displayObjects true
par MMSWirelessNetworkBase.visualizer.physicalEnvironmentVisualizer zIndex 0
par MMSWirelessNetworkBase.visualizer.networkNodeVisualizer typename "\"inet.visualizer.canvas.scene.NetworkNodeCanvasVisualizer\""
par MMSWirelessNetworkBase.visualizer.networkNodeVisualizer visualizationTargetModule "\"^.^\""
par MMSWirelessNetworkBase.visualizer.networkNodeVisualizer visualizationSubjectModule "\"^.^\""
par MMSWirelessNetworkBase.visualizer.networkNodeVisualizer tags "\"\""
par MMSWirelessNetworkBase.visualizer.networkNodeVisualizer nodeFilter "\"*\""
attr mutable ""
par MMSWirelessNetworkBase.visualizer.networkNodeVisualizer annotationSpacing 4
par MMSWirelessNetworkBase.visualizer.networkNodeVisualizer placementPenalty 10
par MMSWirelessNetworkBase.visualizer.networkNodeVisualizer zIndex 0
par MMSWirelessNetworkBase.visualizer.networkConnectionVisualizer typename "\"inet.visualizer.canvas.scene.NetworkConnectionCanvasVisualizer\""
par MMSWirelessNetworkBase.visualizer.networkConnectionVisualizer visualizationTargetModule "\"^.^\""
par MMSWirelessNetworkBase.visualizer.networkConnectionVisualizer visualizationSubjectModule "\"^.^\""
par MMSWirelessNetworkBase.visualizer.networkConnectionVisualizer tags "\"\""
par MMSWirelessNetworkBase.visualizer.networkConnectionVisualizer displayNetworkConnections true
par MMSWirelessNetworkBase.visualizer.networkConnectionVisualizer nodeFilter "\"\""
attr mutable ""
par MMSWirelessNetworkBase.visualizer.networkConnectionVisualizer lineColor "\"black\""
par MMSWirelessNetworkBase.visualizer.networkConnectionVisualizer lineStyle "\"solid\""
par MMSWirelessNetworkBase.visualizer.networkConnectionVisualizer lineWidth 1
par MMSWirelessNetworkBase.visualizer.networkConnectionVisualizer zIndex 0
par MMSWirelessNetworkBase.visualizer.mobilityVisualizer typename "\"inet.visualizer.canvas.mobility.MobilityCanvasVisualizer\""
par MMSWirelessNetworkBase.visualizer.mobilityVisualizer visualizationTargetModule "\"^.^\""
par MMSWirelessNetworkBase.visualizer.mobilityVisualizer visualizationSubjectModule "\"^.^\""
par MMSWirelessNetworkBase.visualizer.mobilityVisualizer tags "\"\""
par MMSWirelessNetworkBase.visualizer.mobilityVisualizer networkNodeVisualizerModule "\"^.networkNodeVisualizer\""
par MMSWirelessNetworkBase.visualizer.mobilityVisualizer displayMobility true
par MMSWirelessNetworkBase.visualizer.mobilityVisualizer animationSpeed 0
par MMSWirelessNetworkBase.visualizer.mobilityVisualizer moduleFilter "\"**.mobility\""
attr mutable ""
par MMSWirelessNetworkBase.visualizer.mobilityVisualizer displayPositions false
par MMSWirelessNetworkBase.visualizer.mobilityVisualizer positionCircleRadius 4
par MMSWirelessNetworkBase.visualizer.mobilityVisualizer positionCircleLineWidth 1
par MMSWirelessNetworkBase.visualizer.mobilityVisualizer positionCircleLineColor "\"dark\""
attr enum light,dark
par MMSWirelessNetworkBase.visualizer.mobilityVisualizer positionCircleFillColor "\"dark\""
attr enum light,dark
par MMSWirelessNetworkBase.visualizer.mobilityVisualizer displayOrientations false
par MMSWirelessNetworkBase.visualizer.mobilityVisualizer orientationPieRadius 32
par MMSWirelessNetworkBase.visualizer.mobilityVisualizer orientationPieSize 0.2
par MMSWirelessNetworkBase.visualizer.mobilityVisualizer orientationPieOpacity 0.25
par MMSWirelessNetworkBase.visualizer.mobilityVisualizer orientationLineColor "\"black\""
par MMSWirelessNetworkBase.visualizer.mobilityVisualizer orientationLineStyle "\"solid\""
par MMSWirelessNetworkBase.visualizer.mobilityVisualizer orientationLineWidth 1
par MMSWirelessNetworkBase.visualizer.mobilityVisualizer orientationFillColor "\"blue\""
par MMSWirelessNetworkBase.visualizer.mobilityVisualizer displayVelocities false
par MMSWirelessNetworkBase.visualizer.mobilityVisualizer velocityArrowScale 1
par MMSWirelessNetworkBase.visualizer.mobilityVisualizer velocityLineColor "\"black\""
par MMSWirelessNetworkBase.visualizer.mobilityVisualizer velocityLineStyle "\"solid\""
par MMSWirelessNetworkBase.visualizer.mobilityVisualizer velocityLineWidth 1
par MMSWirelessNetworkBase.visualizer.mobilityVisualizer displayMovementTrails false
par MMSWirelessNetworkBase.visualizer.mobilityVisualizer movementTrailLineColor "\"dark\""
attr enum light,dark
par MMSWirelessNetworkBase.visualizer.mobilityVisualizer movementTrailLineStyle "\"solid\""
par MMSWirelessNetworkBase.visualizer.mobilityVisualizer movementTrailLineWidth 1
par MMSWirelessNetworkBase.visualizer.mobilityVisualizer trailLength 100
par MMSWirelessNetworkBase.visualizer.mobilityVisualizer zIndex 0
par MMSWirelessNetworkBase.visualizer.statisticVisualizer typename "\"inet.visualizer.canvas.common.StatisticCanvasVisualizer\""
par MMSWirelessNetworkBase.visualizer.statisticVisualizer visualizationTargetModule "\"^.^\""
par MMSWirelessNetworkBase.visualizer.statisticVisualizer visualizationSubjectModule "\"^.^\""
par MMSWirelessNetworkBase.visualizer.statisticVisualizer tags "\"\""
par MMSWirelessNetworkBase.visualizer.statisticVisualizer networkNodeVisualizerModule "\"^.networkNodeVisualizer\""
par MMSWirelessNetworkBase.visualizer.statisticVisualizer displayStatistics true
par MMSWirelessNetworkBase.visualizer.statisticVisualizer signalName "\"\""
par MMSWirelessNetworkBase.visualizer.statisticVisualizer statisticName "\"\""
par MMSWirelessNetworkBase.visualizer.statisticVisualizer statisticUnit "\"\""
par MMSWirelessNetworkBase.visualizer.statisticVisualizer statisticExpression "\"\""
par MMSWirelessNetworkBase.visualizer.statisticVisualizer sourceFilter "\"**\""
attr mutable ""
par MMSWirelessNetworkBase.visualizer.statisticVisualizer format "\"%n: %v %u\""
attr mutable ""
par MMSWirelessNetworkBase.visualizer.statisticVisualizer unit "\"\""
par MMSWirelessNetworkBase.visualizer.statisticVisualizer font "\"<default>\""
par MMSWirelessNetworkBase.visualizer.statisticVisualizer textColor "\"black\""
par MMSWirelessNetworkBase.visualizer.statisticVisualizer backgroundColor "\"white\""
par MMSWirelessNetworkBase.visualizer.statisticVisualizer opacity 1
par MMSWirelessNetworkBase.visualizer.statisticVisualizer placementHint "\"top\""
par MMSWirelessNetworkBase.visualizer.statisticVisualizer placementPriority 0
par MMSWirelessNetworkBase.visualizer.statisticVisualizer zIndex 10
par MMSWirelessNetworkBase.visualizer.statisticVisualizer propertyName "\"\""
par MMSWirelessNetworkBase.visualizer.statisticVisualizer propertyIndex "\"\""
par MMSWirelessNetworkBase.visualizer.infoVisualizer typename "\"inet.visualizer.canvas.common.InfoCanvasVisualizer\""
par MMSWirelessNetworkBase.visualizer.infoVisualizer visualizationTargetModule "\"^.^\""
par MMSWirelessNetworkBase.visualizer.infoVisualizer visualizationSubjectModule "\"^.^\""
par MMSWirelessNetworkBase.visualizer.infoVisualizer tags "\"\""
par MMSWirelessNetworkBase.visualizer.infoVisualizer networkNodeVisualizerModule "\"^.networkNodeVisualizer\""
par MMSWirelessNetworkBase.visualizer.infoVisualizer displayInfos true
par MMSWirelessNetworkBase.visualizer.infoVisualizer modules "\"\""
attr mutable ""
par MMSWirelessNetworkBase.visualizer.infoVisualizer format "\"%t\""
attr mutable ""
par MMSWirelessNetworkBase.visualizer.infoVisualizer font "\"<default>\""
par MMSWirelessNetworkBase.visualizer.infoVisualizer textColor "\"black\""
par MMSWirelessNetworkBase.visualizer.infoVisualizer backgroundColor "\"white\""
par MMSWirelessNetworkBase.visualizer.infoVisualizer opacity 1
par MMSWirelessNetworkBase.visualizer.infoVisualizer placementHint "\"top\""
par MMSWirelessNetworkBase.visualizer.infoVisualizer placementPriority 0
par MMSWirelessNetworkBase.visualizer.infoVisualizer zIndex 10
par MMSWirelessNetworkBase.visualizer.energyStorageVisualizer typename "\"inet.visualizer.canvas.power.EnergyStorageCanvasVisualizer\""
par MMSWirelessNetworkBase.visualizer.energyStorageVisualizer visualizationTargetModule "\"^.^\""
par MMSWirelessNetworkBase.visualizer.energyStorageVisualizer visualizationSubjectModule "\"^.^\""
par MMSWirelessNetworkBase.visualizer.energyStorageVisualizer tags "\"\""
par MMSWirelessNetworkBase.visualizer.energyStorageVisualizer networkNodeVisualizerModule "\"^.networkNodeVisualizer\""
par MMSWirelessNetworkBase.visualizer.energyStorageVisualizer displayEnergyStorages false
par MMSWirelessNetworkBase.visualizer.energyStorageVisualizer energyStorageFilter "\"**\""
par MMSWirelessNetworkBase.visualizer.energyStorageVisualizer color "\"green\""
par MMSWirelessNetworkBase.visualizer.energyStorageVisualizer width 8
par MMSWirelessNetworkBase.visualizer.energyStorageVisualizer height 24
par MMSWirelessNetworkBase.visualizer.energyStorageVisualizer spacing 2
par MMSWirelessNetworkBase.visualizer.energyStorageVisualizer placementHint "\"right\""
par MMSWirelessNetworkBase.visualizer.energyStorageVisualizer placementPriority 0
par MMSWirelessNetworkBase.visualizer.energyStorageVisualizer zIndex 10
par MMSWirelessNetworkBase.visualizer.mediumVisualizer typename "\"inet.visualizer.canvas.physicallayer.MediumCanvasVisualizer\""
par MMSWirelessNetworkBase.visualizer.mediumVisualizer visualizationTargetModule "\"^.^\""
par MMSWirelessNetworkBase.visualizer.mediumVisualizer visualizationSubjectModule "\"^.^\""
par MMSWirelessNetworkBase.visualizer.mediumVisualizer tags "\"\""
par MMSWirelessNetworkBase.visualizer.mediumVisualizer mediumModule "\"radioMedium\""
par MMSWirelessNetworkBase.visualizer.mediumVisualizer networkNodeVisualizerModule "\"^.networkNodeVisualizer\""
par MMSWirelessNetworkBase.visualizer.mediumVisualizer nodeFilter "\"*\""
attr mutable ""
par MMSWirelessNetworkBase.visualizer.mediumVisualizer interfaceFilter "\"*\""
attr mutable ""
par MMSWirelessNetworkBase.visualizer.mediumVisualizer packetFilter "(omnetpp::cValueHolder)holder: \"*\""
attr mutable ""
par MMSWirelessNetworkBase.visualizer.mediumVisualizer displaySignals false
par MMSWirelessNetworkBase.visualizer.mediumVisualizer signalColor "\"dark\""
attr enum light,dark
par MMSWirelessNetworkBase.visualizer.mediumVisualizer signalPropagationAnimationSpeed "nan "
attr mutable ""
par MMSWirelessNetworkBase.visualizer.mediumVisualizer signalPropagationAnimationTime 1s
attr unit s
par MMSWirelessNetworkBase.visualizer.mediumVisualizer signalPropagationAdditionalTime 0s
attr unit s
par MMSWirelessNetworkBase.visualizer.mediumVisualizer signalTransmissionAnimationSpeed "nan "
attr mutable ""
par MMSWirelessNetworkBase.visualizer.mediumVisualizer signalTransmissionAnimationTime 1s
attr unit s
par MMSWirelessNetworkBase.visualizer.mediumVisualizer signalAnimationSpeedChangeTimeMode "\"realTime\""
attr enum realTime,animationTime,simulationTime
par MMSWirelessNetworkBase.visualizer.mediumVisualizer signalAnimationSpeedChangeTime 1s
attr unit s
par MMSWirelessNetworkBase.visualizer.mediumVisualizer displaySignalDepartures false
par MMSWirelessNetworkBase.visualizer.mediumVisualizer signalDepartureImage "\"misc/signal_departure.png\""
par MMSWirelessNetworkBase.visualizer.mediumVisualizer signalDeparturePlacementHint "\"topCenter\""
par MMSWirelessNetworkBase.visualizer.mediumVisualizer signalDeparturePlacementPriority 1
par MMSWirelessNetworkBase.visualizer.mediumVisualizer displaySignalArrivals false
par MMSWirelessNetworkBase.visualizer.mediumVisualizer signalArrivalImage "\"misc/signal_arrival.png\""
par MMSWirelessNetworkBase.visualizer.mediumVisualizer signalArrivalPlacementHint "\"topCenter\""
par MMSWirelessNetworkBase.visualizer.mediumVisualizer signalArrivalPlacementPriority -1
par MMSWirelessNetworkBase.visualizer.mediumVisualizer displayCommunicationRanges false
par MMSWirelessNetworkBase.visualizer.mediumVisualizer communicationRangeLineColor "\"blue\""
par MMSWirelessNetworkBase.visualizer.mediumVisualizer communicationRangeLineStyle "\"solid\""
par MMSWirelessNetworkBase.visualizer.mediumVisualizer communicationRangeLineWidth 1
par MMSWirelessNetworkBase.visualizer.mediumVisualizer displayInterferenceRanges false
par MMSWirelessNetworkBase.visualizer.mediumVisualizer interferenceRangeLineColor "\"gray\""
par MMSWirelessNetworkBase.visualizer.mediumVisualizer interferenceRangeLineStyle "\"solid\""
par MMSWirelessNetworkBase.visualizer.mediumVisualizer interferenceRangeLineWidth 1
par MMSWirelessNetworkBase.visualizer.mediumVisualizer autoPowerAxis true
par MMSWirelessNetworkBase.visualizer.mediumVisualizer signalMinPower "inf dBmW"
attr unit dBmW
par MMSWirelessNetworkBase.visualizer.mediumVisualizer signalMaxPower 0dBmW
attr unit dBmW
par MMSWirelessNetworkBase.visualizer.mediumVisualizer signalMinPowerDensity "inf dBmWpMHz"
attr unit dBmWpMHz
par MMSWirelessNetworkBase.visualizer.mediumVisualizer signalMaxPowerDensity "-inf dBmWpMHz"
attr unit dBmWpMHz
par MMSWirelessNetworkBase.visualizer.mediumVisualizer autoTimeAxis true
par MMSWirelessNetworkBase.visualizer.mediumVisualizer signalMinTime 0s
attr unit s
par MMSWirelessNetworkBase.visualizer.mediumVisualizer signalMaxTime 0s
attr unit s
par MMSWirelessNetworkBase.visualizer.mediumVisualizer autoFrequencyAxis true
par MMSWirelessNetworkBase.visualizer.mediumVisualizer signalMinFrequency "inf Hz"
attr unit Hz
par MMSWirelessNetworkBase.visualizer.mediumVisualizer signalMaxFrequency "-inf Hz"
attr unit Hz
par MMSWirelessNetworkBase.visualizer.mediumVisualizer displayMainPowerDensityMap false
par MMSWirelessNetworkBase.visualizer.mediumVisualizer mainPowerDensityMapPixmapDensity 1
par MMSWirelessNetworkBase.visualizer.mediumVisualizer mainPowerDensityMapMinX 0
par MMSWirelessNetworkBase.visualizer.mediumVisualizer mainPowerDensityMapMaxX "nan "
par MMSWirelessNetworkBase.visualizer.mediumVisualizer mainPowerDensityMapMinY 0
par MMSWirelessNetworkBase.visualizer.mediumVisualizer mainPowerDensityMapMaxY "nan "
par MMSWirelessNetworkBase.visualizer.mediumVisualizer mainPowerDensityMapZ 0
par MMSWirelessNetworkBase.visualizer.mediumVisualizer mainPowerDensityMapFigureXTickCount 3
par MMSWirelessNetworkBase.visualizer.mediumVisualizer mainPowerDensityMapFigureYTickCount 3
par MMSWirelessNetworkBase.visualizer.mediumVisualizer displayPowerDensityMaps false
par MMSWirelessNetworkBase.visualizer.mediumVisualizer powerDensityMapMode "\"auto\""
attr enum total,signal,auto
par MMSWirelessNetworkBase.visualizer.mediumVisualizer powerDensityMapPixelMode "\"mean\""
attr enum sample,partition,mean
par MMSWirelessNetworkBase.visualizer.mediumVisualizer powerDensityMapApproximationSize 10
par MMSWirelessNetworkBase.visualizer.mediumVisualizer powerDensityMapCenterFrequency "nan Hz"
attr mutable ""
attr unit Hz
par MMSWirelessNetworkBase.visualizer.mediumVisualizer powerDensityMapBandwidth 0Hz
attr mutable ""
attr unit Hz
par MMSWirelessNetworkBase.visualizer.mediumVisualizer powerDensityMapFigureWidth 200
par MMSWirelessNetworkBase.visualizer.mediumVisualizer powerDensityMapFigureHeight 120
par MMSWirelessNetworkBase.visualizer.mediumVisualizer powerDensityMapPixmapWidth 200
par MMSWirelessNetworkBase.visualizer.mediumVisualizer powerDensityMapPixmapHeight 120
par MMSWirelessNetworkBase.visualizer.mediumVisualizer powerDensityMapZ 0
par MMSWirelessNetworkBase.visualizer.mediumVisualizer powerDensityMapFigureXTickCount 3
par MMSWirelessNetworkBase.visualizer.mediumVisualizer powerDensityMapFigureYTickCount 3
par MMSWirelessNetworkBase.visualizer.mediumVisualizer displaySpectrums false
par MMSWirelessNetworkBase.visualizer.mediumVisualizer spectrumMode "\"auto\""
attr enum total,signal,auto
par MMSWirelessNetworkBase.visualizer.mediumVisualizer spectrumFigureWidth 200
par MMSWirelessNetworkBase.visualizer.mediumVisualizer spectrumFigureHeight 120
par MMSWirelessNetworkBase.visualizer.mediumVisualizer spectrumFigureXTickCount 3
par MMSWirelessNetworkBase.visualizer.mediumVisualizer spectrumFigureYTickCount 5
par MMSWirelessNetworkBase.visualizer.mediumVisualizer spectrumFigureInterpolationSize 5
par MMSWirelessNetworkBase.visualizer.mediumVisualizer spectrumPlacementHint "\"bottomCenter\""
par MMSWirelessNetworkBase.visualizer.mediumVisualizer spectrumPlacementPriority -1
par MMSWirelessNetworkBase.visualizer.mediumVisualizer displaySpectrograms false
par MMSWirelessNetworkBase.visualizer.mediumVisualizer spectrogramMode "\"auto\""
attr enum total,signal,auto
par MMSWirelessNetworkBase.visualizer.mediumVisualizer spectrogramPixelMode "\"mean\""
attr enum sample,partition,mean
par MMSWirelessNetworkBase.visualizer.mediumVisualizer spectrogramFigureWidth 200
par MMSWirelessNetworkBase.visualizer.mediumVisualizer spectrogramFigureHeight 120
par MMSWirelessNetworkBase.visualizer.mediumVisualizer spectrogramPixmapWidth 200
par MMSWirelessNetworkBase.visualizer.mediumVisualizer spectrogramPixmapHeight 120
par MMSWirelessNetworkBase.visualizer.mediumVisualizer spectrogramFigureXTickCount 3
par MMSWirelessNetworkBase.visualizer.mediumVisualizer spectrogramFigureYTickCount 5
par MMSWirelessNetworkBase.visualizer.mediumVisualizer spectrogramPlacementHint "\"bottomCenter\""
par MMSWirelessNetworkBase.visualizer.mediumVisualizer spectrogramPlacementPriority -1
par MMSWirelessNetworkBase.visualizer.mediumVisualizer zIndex 0
par MMSWirelessNetworkBase.visualizer.mediumVisualizer signalShape "\"ring\""
attr enum ring,sphere
par MMSWirelessNetworkBase.visualizer.mediumVisualizer signalOpacity 0.5
par MMSWirelessNetworkBase.visualizer.mediumVisualizer signalRingCount 20
par MMSWirelessNetworkBase.visualizer.mediumVisualizer signalRingSize 50m
attr unit m
par MMSWirelessNetworkBase.visualizer.mediumVisualizer signalFadingDistance 50m
attr unit m
par MMSWirelessNetworkBase.visualizer.mediumVisualizer signalFadingFactor 1.2
par MMSWirelessNetworkBase.visualizer.mediumVisualizer signalWaveCount 20
par MMSWirelessNetworkBase.visualizer.mediumVisualizer signalWaveLength 50m
attr unit m
par MMSWirelessNetworkBase.visualizer.mediumVisualizer signalWaveWidth 10m
attr unit m
par MMSWirelessNetworkBase.visualizer.mediumVisualizer signalWaveFadingAnimationSpeedFactor 1
par MMSWirelessNetworkBase.visualizer.mediumVisualizer displayCommunicationHeat false
par MMSWirelessNetworkBase.visualizer.obstacleLossVisualizer typename "\"inet.visualizer.canvas.physicallayer.TracingObstacleLossCanvasVisualizer\""
par MMSWirelessNetworkBase.visualizer.obstacleLossVisualizer visualizationTargetModule "\"^.^\""
par MMSWirelessNetworkBase.visualizer.obstacleLossVisualizer visualizationSubjectModule "\"^.^\""
par MMSWirelessNetworkBase.visualizer.obstacleLossVisualizer tags "\"\""
par MMSWirelessNetworkBase.visualizer.obstacleLossVisualizer displayIntersections false
par MMSWirelessNetworkBase.visualizer.obstacleLossVisualizer intersectionLineColor "\"red\""
par MMSWirelessNetworkBase.visualizer.obstacleLossVisualizer intersectionLineStyle "\"solid\""
par MMSWirelessNetworkBase.visualizer.obstacleLossVisualizer intersectionLineWidth 1
par MMSWirelessNetworkBase.visualizer.obstacleLossVisualizer displayFaceNormalVectors false
par MMSWirelessNetworkBase.visualizer.obstacleLossVisualizer faceNormalLineColor "\"grey\""
par MMSWirelessNetworkBase.visualizer.obstacleLossVisualizer faceNormalLineStyle "\"solid\""
par MMSWirelessNetworkBase.visualizer.obstacleLossVisualizer faceNormalLineWidth 1
par MMSWirelessNetworkBase.visualizer.obstacleLossVisualizer fadeOutMode "\"realTime\""
attr enum realTime,animationTime,simulationTime
par MMSWirelessNetworkBase.visualizer.obstacleLossVisualizer fadeOutTime 1s
attr unit s
par MMSWirelessNetworkBase.visualizer.obstacleLossVisualizer fadeOutAnimationSpeed 0
par MMSWirelessNetworkBase.visualizer.obstacleLossVisualizer zIndex 0
par MMSWirelessNetworkBase.visualizer.packetDropVisualizer typename "\"inet.visualizer.canvas.common.PacketDropCanvasVisualizer\""
par MMSWirelessNetworkBase.visualizer.packetDropVisualizer visualizationTargetModule "\"^.^\""
par MMSWirelessNetworkBase.visualizer.packetDropVisualizer visualizationSubjectModule "\"^.^\""
par MMSWirelessNetworkBase.visualizer.packetDropVisualizer tags "\"\""
par MMSWirelessNetworkBase.visualizer.packetDropVisualizer displayPacketDrops false
par MMSWirelessNetworkBase.visualizer.packetDropVisualizer nodeFilter "\"*\""
attr mutable ""
par MMSWirelessNetworkBase.visualizer.packetDropVisualizer interfaceFilter "\"*\""
attr mutable ""
par MMSWirelessNetworkBase.visualizer.packetDropVisualizer packetFilter "(omnetpp::cValueHolder)holder: \"*\""
attr mutable ""
par MMSWirelessNetworkBase.visualizer.packetDropVisualizer detailsFilter "\"*\""
attr mutable ""
par MMSWirelessNetworkBase.visualizer.packetDropVisualizer icon "\"msg/packet_s\""
par MMSWirelessNetworkBase.visualizer.packetDropVisualizer iconTintAmount 1
par MMSWirelessNetworkBase.visualizer.packetDropVisualizer iconTintColor "\"dark\""
par MMSWirelessNetworkBase.visualizer.packetDropVisualizer labelFormat "\"%n\""
attr mutable ""
par MMSWirelessNetworkBase.visualizer.packetDropVisualizer labelFont "\"<default>\""
par MMSWirelessNetworkBase.visualizer.packetDropVisualizer labelColor "\"black\""
par MMSWirelessNetworkBase.visualizer.packetDropVisualizer fadeOutMode "\"realTime\""
attr enum realTime,animationTime,simulationTime
par MMSWirelessNetworkBase.visualizer.packetDropVisualizer fadeOutTime 1s
attr unit s
par MMSWirelessNetworkBase.visualizer.packetDropVisualizer fadeOutAnimationSpeed 0
par MMSWirelessNetworkBase.visualizer.packetDropVisualizer zIndex 10
par MMSWirelessNetworkBase.visualizer.packetDropVisualizer dx 32
par MMSWirelessNetworkBase.visualizer.packetDropVisualizer dy 64
par MMSWirelessNetworkBase.visualizer.packetFlowVisualizer typename "\"inet.visualizer.canvas.flow.PacketFlowCanvasVisualizer\""
par MMSWirelessNetworkBase.visualizer.packetFlowVisualizer visualizationTargetModule "\"^.^\""
par MMSWirelessNetworkBase.visualizer.packetFlowVisualizer visualizationSubjectModule "\"^.^\""
par MMSWirelessNetworkBase.visualizer.packetFlowVisualizer tags "\"\""
par MMSWirelessNetworkBase.visualizer.packetFlowVisualizer displayRoutes false
par MMSWirelessNetworkBase.visualizer.packetFlowVisualizer startPathSignal "\"packetFlowStarted\""
par MMSWirelessNetworkBase.visualizer.packetFlowVisualizer extendPathSignal "\"packetReceivedFromLower\""
par MMSWirelessNetworkBase.visualizer.packetFlowVisualizer endPathSignal "\"packetFlowEnded\""
par MMSWirelessNetworkBase.visualizer.packetFlowVisualizer nodeFilter "\"*\""
attr mutable ""
par MMSWirelessNetworkBase.visualizer.packetFlowVisualizer packetFilter "(omnetpp::cValueHolder)holder: \"*\""
attr mutable ""
par MMSWirelessNetworkBase.visualizer.packetFlowVisualizer lineColor "\"dark\""
attr enum light,dark
par MMSWirelessNetworkBase.visualizer.packetFlowVisualizer lineStyle "\"dashed\""
par MMSWirelessNetworkBase.visualizer.packetFlowVisualizer lineWidth 3
par MMSWirelessNetworkBase.visualizer.packetFlowVisualizer lineSmooth false
par MMSWirelessNetworkBase.visualizer.packetFlowVisualizer lineShift 16
par MMSWirelessNetworkBase.visualizer.packetFlowVisualizer lineShiftMode "\"normal\""
par MMSWirelessNetworkBase.visualizer.packetFlowVisualizer lineContactSpacing 3
par MMSWirelessNetworkBase.visualizer.packetFlowVisualizer lineContactMode "\"rectangular\""
attr enum circular,rectangular
par MMSWirelessNetworkBase.visualizer.packetFlowVisualizer labelFormat "\"%L %p pk (%l)\""
par MMSWirelessNetworkBase.visualizer.packetFlowVisualizer labelFont "\"<default>, 8px\""
par MMSWirelessNetworkBase.visualizer.packetFlowVisualizer labelColor "\"\""
par MMSWirelessNetworkBase.visualizer.packetFlowVisualizer fadeOutMode "\"realTime\""
attr enum realTime,animationTime,simulationTime
par MMSWirelessNetworkBase.visualizer.packetFlowVisualizer fadeOutTime 0s
attr unit s
par MMSWirelessNetworkBase.visualizer.packetFlowVisualizer fadeOutAnimationSpeed 0
par MMSWirelessNetworkBase.visualizer.packetFlowVisualizer zIndex 4
par MMSWirelessNetworkBase.visualizer.queueVisualizer typename "\"inet.visualizer.canvas.common.QueueCanvasVisualizer\""
par MMSWirelessNetworkBase.visualizer.queueVisualizer visualizationTargetModule "\"^.^\""
par MMSWirelessNetworkBase.visualizer.queueVisualizer visualizationSubjectModule "\"^.^\""
par MMSWirelessNetworkBase.visualizer.queueVisualizer tags "\"\""
par MMSWirelessNetworkBase.visualizer.queueVisualizer networkNodeVisualizerModule "\"^.networkNodeVisualizer\""
par MMSWirelessNetworkBase.visualizer.queueVisualizer displayQueues false
par MMSWirelessNetworkBase.visualizer.queueVisualizer queueFilter "\"**\""
par MMSWirelessNetworkBase.visualizer.queueVisualizer color "\"blue\""
par MMSWirelessNetworkBase.visualizer.queueVisualizer width 8
par MMSWirelessNetworkBase.visualizer.queueVisualizer height 24
par MMSWirelessNetworkBase.visualizer.queueVisualizer spacing 2
par MMSWirelessNetworkBase.visualizer.queueVisualizer placementHint "\"right\""
par MMSWirelessNetworkBase.visualizer.queueVisualizer placementPriority 0
par MMSWirelessNetworkBase.visualizer.queueVisualizer zIndex 10
par MMSWirelessNetworkBase.visualizer.gateScheduleVisualizer typename "\"inet.visualizer.canvas.common.GateScheduleCanvasVisualizer\""
par MMSWirelessNetworkBase.visualizer.gateScheduleVisualizer visualizationTargetModule "\"^.^\""
par MMSWirelessNetworkBase.visualizer.gateScheduleVisualizer visualizationSubjectModule "\"^.^\""
par MMSWirelessNetworkBase.visualizer.gateScheduleVisualizer tags "\"\""
par MMSWirelessNetworkBase.visualizer.gateScheduleVisualizer networkNodeVisualizerModule "\"^.networkNodeVisualizer\""
par MMSWirelessNetworkBase.visualizer.gateScheduleVisualizer displayGateSchedules false
par MMSWirelessNetworkBase.visualizer.gateScheduleVisualizer labelFormat "\"%i %D\""
par MMSWirelessNetworkBase.visualizer.gateScheduleVisualizer gateFilter "\"**\""
par MMSWirelessNetworkBase.visualizer.gateScheduleVisualizer width 100
par MMSWirelessNetworkBase.visualizer.gateScheduleVisualizer height 8
par MMSWirelessNetworkBase.visualizer.gateScheduleVisualizer spacing 2
par MMSWirelessNetworkBase.visualizer.gateScheduleVisualizer placementHint "\"right\""
par MMSWirelessNetworkBase.visualizer.gateScheduleVisualizer placementPriority 0
par MMSWirelessNetworkBase.visualizer.gateScheduleVisualizer displayDuration 0s
attr mutable ""
attr unit s
par MMSWirelessNetworkBase.visualizer.gateScheduleVisualizer currentTimePosition 50
par MMSWirelessNetworkBase.visualizer.gateScheduleVisualizer zIndex 10
par MMSWirelessNetworkBase.visualizer.radioVisualizer typename "\"inet.visualizer.canvas.physicallayer.RadioCanvasVisualizer\""
par MMSWirelessNetworkBase.visualizer.radioVisualizer visualizationTargetModule "\"^.^\""
par MMSWirelessNetworkBase.visualizer.radioVisualizer visualizationSubjectModule "\"^.^\""
par MMSWirelessNetworkBase.visualizer.radioVisualizer tags "\"\""
par MMSWirelessNetworkBase.visualizer.radioVisualizer networkNodeVisualizerModule "\"^.networkNodeVisualizer\""
par MMSWirelessNetworkBase.visualizer.radioVisualizer displayRadios false
par MMSWirelessNetworkBase.visualizer.radioVisualizer displayRadioMode true
par MMSWirelessNetworkBase.visualizer.radioVisualizer displayReceptionState true
par MMSWirelessNetworkBase.visualizer.radioVisualizer displayTransmissionState true
par MMSWirelessNetworkBase.visualizer.radioVisualizer displayAntennaLobes false
par MMSWirelessNetworkBase.visualizer.radioVisualizer radioFilter "\"**\""
attr mutable ""
par MMSWirelessNetworkBase.visualizer.radioVisualizer radioModeImages "\"block/process_vs block/timer_vs block/wrx_vs block/wtx_vs block/wrxtx_vs block/cogwheel_vs\""
par MMSWirelessNetworkBase.visualizer.radioVisualizer receptionStateImages "\"- - misc/receiving misc/receiving\""
par MMSWirelessNetworkBase.visualizer.radioVisualizer transmissionStateImages "\"- - misc/transmitting\""
par MMSWirelessNetworkBase.visualizer.radioVisualizer width 16
par MMSWirelessNetworkBase.visualizer.radioVisualizer height 16
par MMSWirelessNetworkBase.visualizer.radioVisualizer placementHint "\"bottomRight\""
par MMSWirelessNetworkBase.visualizer.radioVisualizer placementPriority 0
par MMSWirelessNetworkBase.visualizer.radioVisualizer antennaLobeNormalize false
par MMSWirelessNetworkBase.visualizer.radioVisualizer antennaLobeRelativeLabels false
par MMSWirelessNetworkBase.visualizer.radioVisualizer antennaLobePlaneGlobal true
par MMSWirelessNetworkBase.visualizer.radioVisualizer antennaLobePlane "\"view\""
attr enum view,xy,xz,yz
par MMSWirelessNetworkBase.visualizer.radioVisualizer antennaLobeMode "\"logarithmic\""
attr enum logarithmic,linear
par MMSWirelessNetworkBase.visualizer.radioVisualizer antennaLobeLogarithmicBase 10
par MMSWirelessNetworkBase.visualizer.radioVisualizer antennaLobeLogarithmicScale 100
par MMSWirelessNetworkBase.visualizer.radioVisualizer antennaLobeRadius 100
par MMSWirelessNetworkBase.visualizer.radioVisualizer antennaLobeStep 10deg
attr unit deg
par MMSWirelessNetworkBase.visualizer.radioVisualizer antennaLobeOpacity 0.25
par MMSWirelessNetworkBase.visualizer.radioVisualizer antennaLobeLineSmooth true
par MMSWirelessNetworkBase.visualizer.radioVisualizer antennaLobeLineColor "\"black\""
par MMSWirelessNetworkBase.visualizer.radioVisualizer antennaLobeLineStyle "\"solid\""
par MMSWirelessNetworkBase.visualizer.radioVisualizer antennaLobeLineWidth 1
par MMSWirelessNetworkBase.visualizer.radioVisualizer antennaLobeFillColor "\"white\""
par MMSWirelessNetworkBase.visualizer.radioVisualizer zIndex 10
par MMSWirelessNetworkBase.visualizer.physicalLinkVisualizer typename "\"inet.visualizer.canvas.physicallayer.PhysicalLinkCanvasVisualizer\""
par MMSWirelessNetworkBase.visualizer.physicalLinkVisualizer visualizationTargetModule "\"^.^\""
par MMSWirelessNetworkBase.visualizer.physicalLinkVisualizer visualizationSubjectModule "\"^.^\""
par MMSWirelessNetworkBase.visualizer.physicalLinkVisualizer tags "\"\""
par MMSWirelessNetworkBase.visualizer.physicalLinkVisualizer displayLinks true
par MMSWirelessNetworkBase.visualizer.physicalLinkVisualizer activityLevel "\"service\""
attr enum service,peer,protocol
par MMSWirelessNetworkBase.visualizer.physicalLinkVisualizer nodeFilter "\"*\""
attr mutable ""
par MMSWirelessNetworkBase.visualizer.physicalLinkVisualizer interfaceFilter "\"*\""
attr mutable ""
par MMSWirelessNetworkBase.visualizer.physicalLinkVisualizer packetFilter "(omnetpp::cValueHolder)holder: \"*\""
attr mutable ""
par MMSWirelessNetworkBase.visualizer.physicalLinkVisualizer lineColor "\"olive\""
par MMSWirelessNetworkBase.visualizer.physicalLinkVisualizer lineStyle "\"dotted\""
par MMSWirelessNetworkBase.visualizer.physicalLinkVisualizer lineWidth 3
par MMSWirelessNetworkBase.visualizer.physicalLinkVisualizer lineShift 16
par MMSWirelessNetworkBase.visualizer.physicalLinkVisualizer lineShiftMode "\"normal\""
par MMSWirelessNetworkBase.visualizer.physicalLinkVisualizer lineContactSpacing 3
par MMSWirelessNetworkBase.visualizer.physicalLinkVisualizer lineContactMode "\"rectangular\""
attr enum circular,rectangular
par MMSWirelessNetworkBase.visualizer.physicalLinkVisualizer labelFormat "\"%n\""
par MMSWirelessNetworkBase.visualizer.physicalLinkVisualizer labelFont "\"<default>, 8px\""
par MMSWirelessNetworkBase.visualizer.physicalLinkVisualizer labelColor "\"olive\""
par MMSWirelessNetworkBase.visualizer.physicalLinkVisualizer fadeOutMode "\"realTime\""
attr enum realTime,animationTime,simulationTime
par MMSWirelessNetworkBase.visualizer.physicalLinkVisualizer fadeOutTime 1s
attr unit s
par MMSWirelessNetworkBase.visualizer.physicalLinkVisualizer fadeOutAnimationSpeed 0
par MMSWirelessNetworkBase.visualizer.physicalLinkVisualizer holdAnimationTime 0s
attr unit s
par MMSWirelessNetworkBase.visualizer.physicalLinkVisualizer zIndex 1
par MMSWirelessNetworkBase.visualizer.interfaceTableVisualizer typename "\"inet.visualizer.canvas.linklayer.InterfaceTableCanvasVisualizer\""
par MMSWirelessNetworkBase.visualizer.interfaceTableVisualizer visualizationTargetModule "\"^.^\""
par MMSWirelessNetworkBase.visualizer.interfaceTableVisualizer visualizationSubjectModule "\"^.^\""
par MMSWirelessNetworkBase.visualizer.interfaceTableVisualizer tags "\"\""
par MMSWirelessNetworkBase.visualizer.interfaceTableVisualizer networkNodeVisualizerModule "\"^.networkNodeVisualizer\""
par MMSWirelessNetworkBase.visualizer.interfaceTableVisualizer displayInterfaceTables false
par MMSWirelessNetworkBase.visualizer.interfaceTableVisualizer displayWiredInterfacesAtConnections true
par MMSWirelessNetworkBase.visualizer.interfaceTableVisualizer displayBackground false
par MMSWirelessNetworkBase.visualizer.interfaceTableVisualizer nodeFilter "\"*\""
attr mutable ""
par MMSWirelessNetworkBase.visualizer.interfaceTableVisualizer interfaceFilter "\"not(lo*)\""
attr mutable ""
par MMSWirelessNetworkBase.visualizer.interfaceTableVisualizer format "\"%N %\\\\%a%/%l\""
attr mutable ""
par MMSWirelessNetworkBase.visualizer.interfaceTableVisualizer placementHint "\"top\""
par MMSWirelessNetworkBase.visualizer.interfaceTableVisualizer placementPriority 0
par MMSWirelessNetworkBase.visualizer.interfaceTableVisualizer font "\"<default>\""
par MMSWirelessNetworkBase.visualizer.interfaceTableVisualizer textColor "\"#005030\""
par MMSWirelessNetworkBase.visualizer.interfaceTableVisualizer backgroundColor "\"white\""
par MMSWirelessNetworkBase.visualizer.interfaceTableVisualizer opacity 1
par MMSWirelessNetworkBase.visualizer.interfaceTableVisualizer zIndex 10
par MMSWirelessNetworkBase.visualizer.dataLinkVisualizer typename "\"inet.visualizer.canvas.linklayer.DataLinkCanvasVisualizer\""
par MMSWirelessNetworkBase.visualizer.dataLinkVisualizer visualizationTargetModule "\"^.^\""
par MMSWirelessNetworkBase.visualizer.dataLinkVisualizer visualizationSubjectModule "\"^.^\""
par MMSWirelessNetworkBase.visualizer.dataLinkVisualizer tags "\"\""
par MMSWirelessNetworkBase.visualizer.dataLinkVisualizer displayLinks false
par MMSWirelessNetworkBase.visualizer.dataLinkVisualizer activityLevel "\"service\""
attr enum service,peer,protocol
par MMSWirelessNetworkBase.visualizer.dataLinkVisualizer nodeFilter "\"*\""
attr mutable ""
par MMSWirelessNetworkBase.visualizer.dataLinkVisualizer interfaceFilter "\"*\""
attr mutable ""
par MMSWirelessNetworkBase.visualizer.dataLinkVisualizer packetFilter "(omnetpp::cValueHolder)holder: \"*\""
attr mutable ""
par MMSWirelessNetworkBase.visualizer.dataLinkVisualizer lineColor "\"darkcyan\""
par MMSWirelessNetworkBase.visualizer.dataLinkVisualizer lineStyle "\"solid\""
par MMSWirelessNetworkBase.visualizer.dataLinkVisualizer lineWidth 3
par MMSWirelessNetworkBase.visualizer.dataLinkVisualizer lineShift 16
par MMSWirelessNetworkBase.visualizer.dataLinkVisualizer lineShiftMode "\"normal\""
par MMSWirelessNetworkBase.visualizer.dataLinkVisualizer lineContactSpacing 3
par MMSWirelessNetworkBase.visualizer.dataLinkVisualizer lineContactMode "\"rectangular\""
attr enum circular,rectangular
par MMSWirelessNetworkBase.visualizer.dataLinkVisualizer labelFormat "\"%n\""
par MMSWirelessNetworkBase.visualizer.dataLinkVisualizer labelFont "\"<default>, 8px\""
par MMSWirelessNetworkBase.visualizer.dataLinkVisualizer labelColor "\"darkcyan\""
par MMSWirelessNetworkBase.visualizer.dataLinkVisualizer fadeOutMode "\"realTime\""
attr enum realTime,animationTime,simulationTime
par MMSWirelessNetworkBase.visualizer.dataLinkVisualizer fadeOutTime 1s
attr unit s
par MMSWirelessNetworkBase.visualizer.dataLinkVisualizer fadeOutAnimationSpeed 0
par MMSWirelessNetworkBase.visualizer.dataLinkVisualizer holdAnimationTime 0s
attr unit s
par MMSWirelessNetworkBase.visualizer.dataLinkVisualizer zIndex 2
par MMSWirelessNetworkBase.visualizer.linkBreakVisualizer typename "\"inet.visualizer.canvas.linklayer.LinkBreakCanvasVisualizer\""
par MMSWirelessNetworkBase.visualizer.linkBreakVisualizer visualizationTargetModule "\"^.^\""
par MMSWirelessNetworkBase.visualizer.linkBreakVisualizer visualizationSubjectModule "\"^.^\""
par MMSWirelessNetworkBase.visualizer.linkBreakVisualizer tags "\"\""
par MMSWirelessNetworkBase.visualizer.linkBreakVisualizer displayLinkBreaks false
par MMSWirelessNetworkBase.visualizer.linkBreakVisualizer nodeFilter "\"*\""
attr mutable ""
par MMSWirelessNetworkBase.visualizer.linkBreakVisualizer interfaceFilter "\"*\""
attr mutable ""
par MMSWirelessNetworkBase.visualizer.linkBreakVisualizer packetFilter "(omnetpp::cValueHolder)holder: \"*\""
attr mutable ""
par MMSWirelessNetworkBase.visualizer.linkBreakVisualizer icon "\"status/stop\""
par MMSWirelessNetworkBase.visualizer.linkBreakVisualizer iconTintAmount 0
par MMSWirelessNetworkBase.visualizer.linkBreakVisualizer iconTintColor "\"\""
par MMSWirelessNetworkBase.visualizer.linkBreakVisualizer fadeOutMode "\"realTime\""
attr enum realTime,animationTime,simulationTime
par MMSWirelessNetworkBase.visualizer.linkBreakVisualizer fadeOutTime 1s
attr unit s
par MMSWirelessNetworkBase.visualizer.linkBreakVisualizer fadeOutAnimationSpeed 0
par MMSWirelessNetworkBase.visualizer.linkBreakVisualizer zIndex 2
par MMSWirelessNetworkBase.visualizer.ieee80211Visualizer typename "\"inet.visualizer.canvas.linklayer.Ieee80211CanvasVisualizer\""
par MMSWirelessNetworkBase.visualizer.ieee80211Visualizer visualizationTargetModule "\"^.^\""
par MMSWirelessNetworkBase.visualizer.ieee80211Visualizer visualizationSubjectModule "\"^.^\""
par MMSWirelessNetworkBase.visualizer.ieee80211Visualizer tags "\"\""
par MMSWirelessNetworkBase.visualizer.ieee80211Visualizer networkNodeVisualizerModule "\"^.networkNodeVisualizer\""
par MMSWirelessNetworkBase.visualizer.ieee80211Visualizer displayAssociations false
par MMSWirelessNetworkBase.visualizer.ieee80211Visualizer nodeFilter "\"*\""
attr mutable ""
par MMSWirelessNetworkBase.visualizer.ieee80211Visualizer interfaceFilter "\"*\""
attr mutable ""
par MMSWirelessNetworkBase.visualizer.ieee80211Visualizer minPower -85dBm
attr unit dBm
par MMSWirelessNetworkBase.visualizer.ieee80211Visualizer maxPower -50dBm
attr unit dBm
par MMSWirelessNetworkBase.visualizer.ieee80211Visualizer icons "\"misc/signal_power_0 misc/signal_power_1 misc/signal_power_2 misc/signal_power_3\""
par MMSWirelessNetworkBase.visualizer.ieee80211Visualizer iconColor "\"dark\""
attr enum light,dark
par MMSWirelessNetworkBase.visualizer.ieee80211Visualizer labelFont "\"<default>\""
par MMSWirelessNetworkBase.visualizer.ieee80211Visualizer labelColor "\"black\""
par MMSWirelessNetworkBase.visualizer.ieee80211Visualizer placementHint "\"top\""
par MMSWirelessNetworkBase.visualizer.ieee80211Visualizer placementPriority 0
par MMSWirelessNetworkBase.visualizer.ieee80211Visualizer zIndex 2
par MMSWirelessNetworkBase.visualizer.networkRouteVisualizer typename "\"inet.visualizer.canvas.networklayer.NetworkRouteCanvasVisualizer\""
par MMSWirelessNetworkBase.visualizer.networkRouteVisualizer visualizationTargetModule "\"^.^\""
par MMSWirelessNetworkBase.visualizer.networkRouteVisualizer visualizationSubjectModule "\"^.^\""
par MMSWirelessNetworkBase.visualizer.networkRouteVisualizer tags "\"\""
par MMSWirelessNetworkBase.visualizer.networkRouteVisualizer displayRoutes false
par MMSWirelessNetworkBase.visualizer.networkRouteVisualizer startPathSignal "\"packetReceivedFromUpper\""
par MMSWirelessNetworkBase.visualizer.networkRouteVisualizer extendPathSignal "\"packetReceivedFromLower\""
par MMSWirelessNetworkBase.visualizer.networkRouteVisualizer endPathSignal "\"packetSentToUpper\""
par MMSWirelessNetworkBase.visualizer.networkRouteVisualizer nodeFilter "\"*\""
attr mutable ""
par MMSWirelessNetworkBase.visualizer.networkRouteVisualizer packetFilter "(omnetpp::cValueHolder)holder: \"*\""
attr mutable ""
par MMSWirelessNetworkBase.visualizer.networkRouteVisualizer lineColor "\"dark\""
attr enum light,dark
par MMSWirelessNetworkBase.visualizer.networkRouteVisualizer lineStyle "\"solid\""
par MMSWirelessNetworkBase.visualizer.networkRouteVisualizer lineWidth 3
par MMSWirelessNetworkBase.visualizer.networkRouteVisualizer lineSmooth false
par MMSWirelessNetworkBase.visualizer.networkRouteVisualizer lineShift 16
par MMSWirelessNetworkBase.visualizer.networkRouteVisualizer lineShiftMode "\"normal\""
par MMSWirelessNetworkBase.visualizer.networkRouteVisualizer lineContactSpacing 3
par MMSWirelessNetworkBase.visualizer.networkRouteVisualizer lineContactMode "\"rectangular\""
attr enum circular,rectangular
par MMSWirelessNetworkBase.visualizer.networkRouteVisualizer labelFormat "\"%n\""
par MMSWirelessNetworkBase.visualizer.networkRouteVisualizer labelFont "\"<default>, 8px\""
par MMSWirelessNetworkBase.visualizer.networkRouteVisualizer labelColor "\"\""
par MMSWirelessNetworkBase.visualizer.networkRouteVisualizer fadeOutMode "\"realTime\""
attr enum realTime,animationTime,simulationTime
par MMSWirelessNetworkBase.visualizer.networkRouteVisualizer fadeOutTime 1s
attr unit s
par MMSWirelessNetworkBase.visualizer.networkRouteVisualizer fadeOutAnimationSpeed 0
par MMSWirelessNetworkBase.visualizer.networkRouteVisualizer zIndex 3
par MMSWirelessNetworkBase.visualizer.routingTableVisualizer typename "\"inet.visualizer.canvas.networklayer.RoutingTableCanvasVisualizer\""
par MMSWirelessNetworkBase.visualizer.routingTableVisualizer visualizationTargetModule "\"^.^\""
par MMSWirelessNetworkBase.visualizer.routingTableVisualizer visualizationSubjectModule "\"^.^\""
par MMSWirelessNetworkBase.visualizer.routingTableVisualizer tags "\"\""
par MMSWirelessNetworkBase.visualizer.routingTableVisualizer displayRoutingTables false
par MMSWirelessNetworkBase.visualizer.routingTableVisualizer displayRoutesIndividually true
par MMSWirelessNetworkBase.visualizer.routingTableVisualizer displayLabels true
par MMSWirelessNetworkBase.visualizer.routingTableVisualizer destinationFilter "\"*\""
attr mutable ""
par MMSWirelessNetworkBase.visualizer.routingTableVisualizer nodeFilter "\"*\""
attr mutable ""
par MMSWirelessNetworkBase.visualizer.routingTableVisualizer lineColor "\"black\""
par MMSWirelessNetworkBase.visualizer.routingTableVisualizer lineStyle "\"solid\""
par MMSWirelessNetworkBase.visualizer.routingTableVisualizer lineWidth 2
par MMSWirelessNetworkBase.visualizer.routingTableVisualizer lineShift 16
par MMSWirelessNetworkBase.visualizer.routingTableVisualizer lineShiftMode "\"normal\""
par MMSWirelessNetworkBase.visualizer.routingTableVisualizer lineContactSpacing 3
par MMSWirelessNetworkBase.visualizer.routingTableVisualizer lineContactMode "\"rectangular\""
attr enum circular,rectangular
par MMSWirelessNetworkBase.visualizer.routingTableVisualizer labelFormat "\"%d/%m -> %g (%n)\""
attr mutable ""
par MMSWirelessNetworkBase.visualizer.routingTableVisualizer labelFont "\"<default>, 8px\""
par MMSWirelessNetworkBase.visualizer.routingTableVisualizer labelColor "\"black\""
par MMSWirelessNetworkBase.visualizer.routingTableVisualizer zIndex 0
par MMSWirelessNetworkBase.visualizer.transportRouteVisualizer typename "\"inet.visualizer.canvas.transportlayer.TransportRouteCanvasVisualizer\""
par MMSWirelessNetworkBase.visualizer.transportRouteVisualizer visualizationTargetModule "\"^.^\""
par MMSWirelessNetworkBase.visualizer.transportRouteVisualizer visualizationSubjectModule "\"^.^\""
par MMSWirelessNetworkBase.visualizer.transportRouteVisualizer tags "\"\""
par MMSWirelessNetworkBase.visualizer.transportRouteVisualizer displayRoutes false
par MMSWirelessNetworkBase.visualizer.transportRouteVisualizer startPathSignal "\"packetReceivedFromUpper\""
par MMSWirelessNetworkBase.visualizer.transportRouteVisualizer extendPathSignal "\"packetReceivedFromLower\""
par MMSWirelessNetworkBase.visualizer.transportRouteVisualizer endPathSignal "\"packetSentToUpper\""
par MMSWirelessNetworkBase.visualizer.transportRouteVisualizer nodeFilter "\"*\""
attr mutable ""
par MMSWirelessNetworkBase.visualizer.transportRouteVisualizer packetFilter "(omnetpp::cValueHolder)holder: \"*\""
attr mutable ""
par MMSWirelessNetworkBase.visualizer.transportRouteVisualizer lineColor "\"dark\""
attr enum light,dark
par MMSWirelessNetworkBase.visualizer.transportRouteVisualizer lineStyle "\"solid\""
par MMSWirelessNetworkBase.visualizer.transportRouteVisualizer lineWidth 3
par MMSWirelessNetworkBase.visualizer.transportRouteVisualizer lineSmooth false
par MMSWirelessNetworkBase.visualizer.transportRouteVisualizer lineShift 16
par MMSWirelessNetworkBase.visualizer.transportRouteVisualizer lineShiftMode "\"normal\""
par MMSWirelessNetworkBase.visualizer.transportRouteVisualizer lineContactSpacing 3
par MMSWirelessNetworkBase.visualizer.transportRouteVisualizer lineContactMode "\"rectangular\""
attr enum circular,rectangular
par MMSWirelessNetworkBase.visualizer.transportRouteVisualizer labelFormat "\"%n\""
par MMSWirelessNetworkBase.visualizer.transportRouteVisualizer labelFont "\"<default>, 8px\""
par MMSWirelessNetworkBase.visualizer.transportRouteVisualizer labelColor "\"\""
par MMSWirelessNetworkBase.visualizer.transportRouteVisualizer fadeOutMode "\"realTime\""
attr enum realTime,animationTime,simulationTime
par MMSWirelessNetworkBase.visualizer.transportRouteVisualizer fadeOutTime 1s
attr unit s
par MMSWirelessNetworkBase.visualizer.transportRouteVisualizer fadeOutAnimationSpeed 0
par MMSWirelessNetworkBase.visualizer.transportRouteVisualizer zIndex 4
par MMSWirelessNetworkBase.visualizer.transportConnectionVisualizer typename "\"inet.visualizer.canvas.transportlayer.TransportConnectionCanvasVisualizer\""
par MMSWirelessNetworkBase.visualizer.transportConnectionVisualizer visualizationTargetModule "\"^.^\""
par MMSWirelessNetworkBase.visualizer.transportConnectionVisualizer visualizationSubjectModule "\"^.^\""
par MMSWirelessNetworkBase.visualizer.transportConnectionVisualizer tags "\"\""
par MMSWirelessNetworkBase.visualizer.transportConnectionVisualizer networkNodeVisualizerModule "\"^.networkNodeVisualizer\""
par MMSWirelessNetworkBase.visualizer.transportConnectionVisualizer displayTransportConnections false
par MMSWirelessNetworkBase.visualizer.transportConnectionVisualizer sourceNodeFilter "\"*\""
attr mutable ""
par MMSWirelessNetworkBase.visualizer.transportConnectionVisualizer sourcePortFilter "\"*\""
attr mutable ""
par MMSWirelessNetworkBase.visualizer.transportConnectionVisualizer destinationNodeFilter "\"*\""
attr mutable ""
par MMSWirelessNetworkBase.visualizer.transportConnectionVisualizer destinationPortFilter "\"*\""
attr mutable ""
par MMSWirelessNetworkBase.visualizer.transportConnectionVisualizer icon "\"misc/marker_s\""
par MMSWirelessNetworkBase.visualizer.transportConnectionVisualizer iconColor "\"dark\""
attr enum light,dark
par MMSWirelessNetworkBase.visualizer.transportConnectionVisualizer labelFont "\"<default>\""
par MMSWirelessNetworkBase.visualizer.transportConnectionVisualizer labelColor "\"black\""
par MMSWirelessNetworkBase.visualizer.transportConnectionVisualizer placementHint "\"top\""
par MMSWirelessNetworkBase.visualizer.transportConnectionVisualizer placementPriority 0
par MMSWirelessNetworkBase.visualizer.transportConnectionVisualizer zIndex 4
par MMSWirelessNetworkBase.visualizer.failureProtectionConfigurationVisualizer typename "\"inet.visualizer.canvas.configurator.FailureProtectionConfigurationCanvasVisualizer\""
par MMSWirelessNetworkBase.visualizer.failureProtectionConfigurationVisualizer visualizationTargetModule "\"^.^\""
par MMSWirelessNetworkBase.visualizer.failureProtectionConfigurationVisualizer visualizationSubjectModule "\"^.^\""
par MMSWirelessNetworkBase.visualizer.failureProtectionConfigurationVisualizer tags "\"\""
par MMSWirelessNetworkBase.visualizer.failureProtectionConfigurationVisualizer displayTrees false
par MMSWirelessNetworkBase.visualizer.failureProtectionConfigurationVisualizer lineColor "\"dark\""
attr enum light,dark
par MMSWirelessNetworkBase.visualizer.failureProtectionConfigurationVisualizer lineStyle "\"solid\""
par MMSWirelessNetworkBase.visualizer.failureProtectionConfigurationVisualizer lineWidth 3
par MMSWirelessNetworkBase.visualizer.failureProtectionConfigurationVisualizer lineSmooth false
par MMSWirelessNetworkBase.visualizer.failureProtectionConfigurationVisualizer lineShift 16
par MMSWirelessNetworkBase.visualizer.failureProtectionConfigurationVisualizer lineShiftMode "\"normal\""
par MMSWirelessNetworkBase.visualizer.failureProtectionConfigurationVisualizer lineContactSpacing 3
par MMSWirelessNetworkBase.visualizer.failureProtectionConfigurationVisualizer lineContactMode "\"rectangular\""
attr enum circular,rectangular
par MMSWirelessNetworkBase.visualizer.failureProtectionConfigurationVisualizer failureProtectionConfiguratorModule "\"failureProtectionConfigurator\""
par MMSWirelessNetworkBase.visualizer.failureProtectionConfigurationVisualizer streamFilter "\"*\""
par MMSWirelessNetworkBase.visualizer.failureProtectionConfigurationVisualizer zIndex 3
par MMSWirelessNetworkBase.visualizer.streamRedundancyConfigurationVisualizer typename "\"inet.visualizer.canvas.configurator.StreamRedundancyConfigurationCanvasVisualizer\""
par MMSWirelessNetworkBase.visualizer.streamRedundancyConfigurationVisualizer visualizationTargetModule "\"^.^\""
par MMSWirelessNetworkBase.visualizer.streamRedundancyConfigurationVisualizer visualizationSubjectModule "\"^.^\""
par MMSWirelessNetworkBase.visualizer.streamRedundancyConfigurationVisualizer tags "\"\""
par MMSWirelessNetworkBase.visualizer.streamRedundancyConfigurationVisualizer displayTrees false
par MMSWirelessNetworkBase.visualizer.streamRedundancyConfigurationVisualizer lineColor "\"dark\""
attr enum light,dark
par MMSWirelessNetworkBase.visualizer.streamRedundancyConfigurationVisualizer lineStyle "\"solid\""
par MMSWirelessNetworkBase.visualizer.streamRedundancyConfigurationVisualizer lineWidth 3
par MMSWirelessNetworkBase.visualizer.streamRedundancyConfigurationVisualizer lineSmooth false
par MMSWirelessNetworkBase.visualizer.streamRedundancyConfigurationVisualizer lineShift 16
par MMSWirelessNetworkBase.visualizer.streamRedundancyConfigurationVisualizer lineShiftMode "\"normal\""
par MMSWirelessNetworkBase.visualizer.streamRedundancyConfigurationVisualizer lineContactSpacing 3
par MMSWirelessNetworkBase.visualizer.streamRedundancyConfigurationVisualizer lineContactMode "\"rectangular\""
attr enum circular,rectangular
par MMSWirelessNetworkBase.visualizer.streamRedundancyConfigurationVisualizer streamRedundancyConfiguratorModule "\"streamRedundancyConfigurator\""
par MMSWirelessNetworkBase.visualizer.streamRedundancyConfigurationVisualizer streamFilter "\"*\""
par MMSWirelessNetworkBase.visualizer.streamRedundancyConfigurationVisualizer zIndex 3
par MMSWirelessNetworkBase.visualizer typename "\"inet.visualizer.canvas.integrated.IntegratedCanvasVisualizer\""
par MMSWirelessNetworkBase.configurator typename "\"inet.networklayer.configurator.ipv4.Ipv4NetworkConfigurator\""
par MMSWirelessNetworkBase.configurator minLinkWeight 0.001
par MMSWirelessNetworkBase.configurator configureIsolatedNetworksSeparatly false
par MMSWirelessNetworkBase.configurator config "<config>...</config> at content:1"
par MMSWirelessNetworkBase.configurator assignAddresses true
par MMSWirelessNetworkBase.configurator assignUniqueAddresses true
par MMSWirelessNetworkBase.configurator assignDisjunctSubnetAddresses true
par MMSWirelessNetworkBase.configurator addStaticRoutes true
par MMSWirelessNetworkBase.configurator addDefaultRoutes true
par MMSWirelessNetworkBase.configurator addSubnetRoutes true
par MMSWirelessNetworkBase.configurator addDirectRoutes true
par MMSWirelessNetworkBase.configurator optimizeRoutes true
par MMSWirelessNetworkBase.configurator dumpTopology false
par MMSWirelessNetworkBase.configurator dumpLinks false
par MMSWirelessNetworkBase.configurator dumpAddresses false
par MMSWirelessNetworkBase.configurator dumpRoutes false
par MMSWirelessNetworkBase.configurator dumpConfig "\"\""
par MMSWirelessNetworkBase.radioMedium.propagation typename "\"inet.physicallayer.wireless.common.propagation.ConstantSpeedPropagation\""
par MMSWirelessNetworkBase.radioMedium.propagation propagationSpeed 2.99792e+08mps
attr unit mps
par MMSWirelessNetworkBase.radioMedium.propagation ignoreMovementDuringTransmission true
par MMSWirelessNetworkBase.radioMedium.propagation ignoreMovementDuringPropagation true
par MMSWirelessNetworkBase.radioMedium.propagation ignoreMovementDuringReception true
scalar MMSWirelessNetworkBase.radioMedium.propagation "Arrival computation count" 478375
par MMSWirelessNetworkBase.radioMedium.analogModel typename "\"inet.physicallayer.wireless.common.analogmodel.packetlevel.ScalarAnalogModel\""
par MMSWirelessNetworkBase.radioMedium.analogModel ignorePartialInterference false
par MMSWirelessNetworkBase.radioMedium.backgroundNoise typename "\"inet.physicallayer.wireless.common.backgroundnoise.IsotropicScalarBackgroundNoise\""
par MMSWirelessNetworkBase.radioMedium.backgroundNoise power -110dBm
attr unit dBm
par MMSWirelessNetworkBase.radioMedium.backgroundNoise bandwidth "nan Hz"
attr unit Hz
par MMSWirelessNetworkBase.radioMedium.pathLoss typename "\"inet.physicallayer.wireless.common.pathloss.FreeSpacePathLoss\""
par MMSWirelessNetworkBase.radioMedium.pathLoss alpha 2
par MMSWirelessNetworkBase.radioMedium.pathLoss systemLoss 0dB
attr unit dB
par MMSWirelessNetworkBase.radioMedium.mediumLimitCache typename "\"inet.physicallayer.wireless.common.medium.MediumLimitCache\""
par MMSWirelessNetworkBase.radioMedium.mediumLimitCache centerFrequency 2.4e+09Hz
attr unit Hz
par MMSWirelessNetworkBase.radioMedium.mediumLimitCache maxSpeed "nan mps"
attr unit mps
par MMSWirelessNetworkBase.radioMedium.mediumLimitCache maxTransmissionPower "nan W"
attr unit W
par MMSWirelessNetworkBase.radioMedium.mediumLimitCache minInterferencePower -110dBm
attr unit dBm
par MMSWirelessNetworkBase.radioMedium.mediumLimitCache minReceptionPower -85dBm
attr unit dBm
par MMSWirelessNetworkBase.radioMedium.mediumLimitCache maxAntennaGain 0dB
attr unit dB
par MMSWirelessNetworkBase.radioMedium.mediumLimitCache minInterferenceTime 1e-12s
attr unit s
par MMSWirelessNetworkBase.radioMedium.mediumLimitCache maxTransmissionDuration 0.01s
attr unit s
par MMSWirelessNetworkBase.radioMedium.mediumLimitCache maxCommunicationRange "nan m"
attr unit m
par MMSWirelessNetworkBase.radioMedium.mediumLimitCache maxInterferenceRange "nan m"
attr unit m
par MMSWirelessNetworkBase.radioMedium.communicationCache typename "\"inet.physicallayer.wireless.common.communicationcache.VectorCommunicationCache\""
par MMSWirelessNetworkBase.radioMedium typename "\"inet.physicallayer.wireless.ieee80211.packetlevel.Ieee80211RadioMedium\""
par MMSWirelessNetworkBase.radioMedium physicalEnvironmentModule "\"physicalEnvironment\""
par MMSWirelessNetworkBase.radioMedium signalAnalogRepresentation "\"scalar\""
attr enum unitDisk,scalar,dimensional
par MMSWirelessNetworkBase.radioMedium rangeFilter "\"\""
par MMSWirelessNetworkBase.radioMedium radioModeFilter false
par MMSWirelessNetworkBase.radioMedium listeningFilter false
par MMSWirelessNetworkBase.radioMedium macAddressFilter false
par MMSWirelessNetworkBase.radioMedium recordTransmissionLog false
par MMSWirelessNetworkBase.radioMedium recordReceptionLog false
scalar MMSWirelessNetworkBase.radioMedium "transmission count" 95675
scalar MMSWirelessNetworkBase.radioMedium "signal send count" 478375
scalar MMSWirelessNetworkBase.radioMedium "reception computation count" 478375
scalar MMSWirelessNetworkBase.radioMedium "interference computation count" 1530706
scalar MMSWirelessNetworkBase.radioMedium "reception decision computation count" 478309
scalar MMSWirelessNetworkBase.radioMedium "listening decision computation count" 574050
scalar MMSWirelessNetworkBase.radioMedium "reception cache hit" 85.71375669292
attr unit %
scalar MMSWirelessNetworkBase.radioMedium "interference cache hit" 66.666666666667
attr unit %
scalar MMSWirelessNetworkBase.radioMedium "noise cache hit" 0
attr unit %
scalar MMSWirelessNetworkBase.radioMedium "snir cache hit" 50
attr unit %
scalar MMSWirelessNetworkBase.radioMedium "reception decision cache hit" 50
attr unit %
scalar MMSWirelessNetworkBase.radioMedium "reception result cache hit" 0
attr unit %
par MMSWirelessNetworkBase.client[0].radioIn[0].channel typename "\"ned.IdealChannel\""
par MMSWirelessNetworkBase.client[0].mobility typename "\"inet.mobility.static.StationaryMobility\""
par MMSWirelessNetworkBase.client[0].mobility subjectModule "\"^\""
par MMSWirelessNetworkBase.client[0].mobility coordinateSystemModule "\"\""
par MMSWirelessNetworkBase.client[0].mobility displayStringTextFormat "\"p: %p\\nv: %v\""
attr mutable ""
par MMSWirelessNetworkBase.client[0].mobility updateDisplayString true
par MMSWirelessNetworkBase.client[0].mobility constraintAreaMinX "-inf m"
attr unit m
par MMSWirelessNetworkBase.client[0].mobility constraintAreaMinY "-inf m"
attr unit m
par MMSWirelessNetworkBase.client[0].mobility constraintAreaMinZ "-inf m"
attr unit m
par MMSWirelessNetworkBase.client[0].mobility constraintAreaMaxX "inf m"
attr unit m
par MMSWirelessNetworkBase.client[0].mobility constraintAreaMaxY "inf m"
attr unit m
par MMSWirelessNetworkBase.client[0].mobility constraintAreaMaxZ "inf m"
attr unit m
par MMSWirelessNetworkBase.client[0].mobility initialX 200m
attr unit m
par MMSWirelessNetworkBase.client[0].mobility initialY 130m
attr unit m
par MMSWirelessNetworkBase.client[0].mobility initialZ 0m
attr unit m
par MMSWirelessNetworkBase.client[0].mobility initialLatitude "nan deg"
attr unit deg
par MMSWirelessNetworkBase.client[0].mobility initialLongitude "nan deg"
attr unit deg
par MMSWirelessNetworkBase.client[0].mobility initialAltitude 0m
attr unit m
par MMSWirelessNetworkBase.client[0].mobility initialHeading 0deg
attr unit deg
par MMSWirelessNetworkBase.client[0].mobility initialElevation 0deg
attr unit deg
par MMSWirelessNetworkBase.client[0].mobility initialBank 0deg
attr unit deg
par MMSWirelessNetworkBase.client[0].mobility initFromDisplayString false
par MMSWirelessNetworkBase.client[0].mobility updateFromDisplayString true
par MMSWirelessNetworkBase.client[0].interfaceTable typename "\"inet.networklayer.common.InterfaceTable\""
par MMSWirelessNetworkBase.client[0].interfaceTable displayAddresses false
par MMSWirelessNetworkBase.client[0].cb typename "\"inet.common.MessageDispatcher\""
par MMSWirelessNetworkBase.client[0].cb displayStringTextFormat "\"processed %p pk (%l)\""
par MMSWirelessNetworkBase.client[0].cb forwardServiceRegistration true
par MMSWirelessNetworkBase.client[0].cb forwardProtocolRegistration true
par MMSWirelessNetworkBase.client[0].bl typename "\"inet.common.MessageDispatcher\""
par MMSWirelessNetworkBase.client[0].bl displayStringTextFormat "\"processed %p pk (%l)\""
par MMSWirelessNetworkBase.client[0].bl forwardServiceRegistration true
par MMSWirelessNetworkBase.client[0].bl forwardProtocolRegistration true
par MMSWirelessNetworkBase.client[0].li typename "\"inet.common.MessageDispatcher\""
par MMSWirelessNetworkBase.client[0].li displayStringTextFormat "\"processed %p pk (%l)\""
par MMSWirelessNetworkBase.client[0].li forwardServiceRegistration true
par MMSWirelessNetworkBase.client[0].li forwardProtocolRegistration true
par MMSWirelessNetworkBase.client[0].lo[0].upperLayerIn.channel typename "\"ned.IdealChannel\""
par MMSWirelessNetworkBase.client[0].lo[0].lo.upperLayerOut.channel typename "\"ned.IdealChannel\""
par MMSWirelessNetworkBase.client[0].lo[0].lo typename "\"inet.linklayer.loopback.Loopback\""
par MMSWirelessNetworkBase.client[0].lo[0].lo interfaceTableModule "\"MMSWirelessNetworkBase.client[0].interfaceTable\""
par MMSWirelessNetworkBase.client[0].lo[0].lo mtu 4470B
attr unit B
scalar MMSWirelessNetworkBase.client[0].lo[0].lo rcvdPkFromHl:count 0
attr interpolationmode none
attr recordingmode count
attr source packetReceivedFromUpper
attr title "packets received from higher layer, count"
scalar MMSWirelessNetworkBase.client[0].lo[0].lo rcvdPkFromHl:sum(packetBytes) 0
attr interpolationmode none
attr recordingmode sum(packetBytes)
attr source packetReceivedFromUpper
attr title "packets received from higher layer, sum(packetBytes)"
scalar MMSWirelessNetworkBase.client[0].lo[0].lo passedUpPk:count 0
attr interpolationmode none
attr recordingmode count
attr source packetSentToUpper
attr title "packets passed to higher layer, count"
scalar MMSWirelessNetworkBase.client[0].lo[0].lo passedUpPk:sum(packetBytes) 0
attr interpolationmode none
attr recordingmode sum(packetBytes)
attr source packetSentToUpper
attr title "packets passed to higher layer, sum(packetBytes)"
par MMSWirelessNetworkBase.client[0].lo[0] typename "\"inet.linklayer.loopback.LoopbackInterface\""
par MMSWirelessNetworkBase.client[0].lo[0] displayStringTextFormat "\"%a (%i)\\n%m\""
par MMSWirelessNetworkBase.client[0].lo[0] recordPcap false
par MMSWirelessNetworkBase.client[0].lo[0] numPcapRecorders 0
par MMSWirelessNetworkBase.client[0].lo[0] interfaceTableModule "\"MMSWirelessNetworkBase.client[0].interfaceTable\""
scalar MMSWirelessNetworkBase.client[0].lo[0] packetDropInterfaceDown:count 0
attr interpolationmode none
attr recordingmode count
attr source packetDropReasonIsInterfaceDown(packetDropped)
attr title "packet drops: interface down, count"
scalar MMSWirelessNetworkBase.client[0].lo[0] packetDropInterfaceDown:sum(packetBytes) 0
attr interpolationmode none
attr recordingmode sum(packetBytes)
attr source packetDropReasonIsInterfaceDown(packetDropped)
attr title "packet drops: interface down, sum(packetBytes)"
scalar MMSWirelessNetworkBase.client[0].lo[0] packetDropNoCarrier:count 0
attr interpolationmode none
attr recordingmode count
attr source packetDropReasonIsNoCarrier(packetDropped)
attr title "packet drops: no carrier, count"
scalar MMSWirelessNetworkBase.client[0].lo[0] packetDropNoCarrier:sum(packetBytes) 0
attr interpolationmode none
attr recordingmode sum(packetBytes)
attr source packetDropReasonIsNoCarrier(packetDropped)
attr title "packet drops: no carrier, sum(packetBytes)"
par MMSWirelessNetworkBase.client[0].wlan[0].radioIn.channel typename "\"ned.IdealChannel\""
par MMSWirelessNetworkBase.client[0].wlan[0].llc.upperLayerOut.channel typename "\"ned.IdealChannel\""
par MMSWirelessNetworkBase.client[0].wlan[0].upperLayerIn.channel typename "\"ned.IdealChannel\""
par MMSWirelessNetworkBase.client[0].wlan[0].mib typename "\"inet.linklayer.ieee80211.mib.Ieee80211Mib\""
par MMSWirelessNetworkBase.client[0].wlan[0].llc typename "\"inet.linklayer.ieee80211.llc.Ieee80211LlcLpd\""
par MMSWirelessNetworkBase.client[0].wlan[0].llc registerProtocol false
par MMSWirelessNetworkBase.client[0].wlan[0].agent typename "\"inet.linklayer.ieee80211.mgmt.Ieee80211AgentSta\""
par MMSWirelessNetworkBase.client[0].wlan[0].agent interfaceTableModule "\"MMSWirelessNetworkBase.client[0].interfaceTable\""
par MMSWirelessNetworkBase.client[0].wlan[0].agent mibModule "\"MMSWirelessNetworkBase.client[0].wlan[0].mib\""
par MMSWirelessNetworkBase.client[0].wlan[0].agent activeScan true
par MMSWirelessNetworkBase.client[0].wlan[0].agent channelsToScan "\"\""
par MMSWirelessNetworkBase.client[0].wlan[0].agent probeDelay 0.1s
attr unit s
par MMSWirelessNetworkBase.client[0].wlan[0].agent minChannelTime 0.15s
attr unit s
par MMSWirelessNetworkBase.client[0].wlan[0].agent maxChannelTime 0.3s
attr unit s
par MMSWirelessNetworkBase.client[0].wlan[0].agent authenticationTimeout 5s
attr unit s
par MMSWirelessNetworkBase.client[0].wlan[0].agent associationTimeout 5s
attr unit s
par MMSWirelessNetworkBase.client[0].wlan[0].agent startingTime -1s
attr unit s
par MMSWirelessNetworkBase.client[0].wlan[0].agent defaultSsid "\"SSID\""
scalar MMSWirelessNetworkBase.client[0].wlan[0].agent dropConfirm:count 0
attr recordingmode count
attr title "dropped confirms, count"
scalar MMSWirelessNetworkBase.client[0].wlan[0].agent acceptConfirm:count 3
attr recordingmode count
attr title "accepted confirms, count"
scalar MMSWirelessNetworkBase.client[0].wlan[0].agent sentRequest:count 3
attr recordingmode count
attr title "sent requests, count"
par MMSWirelessNetworkBase.client[0].wlan[0].mgmt typename "\"inet.linklayer.ieee80211.mgmt.Ieee80211MgmtSta\""
par MMSWirelessNetworkBase.client[0].wlan[0].mgmt interfaceTableModule "\"MMSWirelessNetworkBase.client[0].interfaceTable\""
par MMSWirelessNetworkBase.client[0].wlan[0].mgmt numChannels 1
par MMSWirelessNetworkBase.client[0].wlan[0].mgmt mibModule "\"MMSWirelessNetworkBase.client[0].wlan[0].mib\""
par MMSWirelessNetworkBase.client[0].wlan[0].mgmt macModule "\"MMSWirelessNetworkBase.client[0].wlan[0].mac\""
par MMSWirelessNetworkBase.client[0].wlan[0].mac.dcf.channelAccess.pendingQueue typename "\"inet.linklayer.ieee80211.mac.queue.PendingQueue\""
par MMSWirelessNetworkBase.client[0].wlan[0].mac.dcf.channelAccess.pendingQueue displayStringTextFormat "\"contains %p pk (%l) pushed %u\\npulled %o removed %r dropped %d\""
par MMSWirelessNetworkBase.client[0].wlan[0].mac.dcf.channelAccess.pendingQueue packetCapacity 14
par MMSWirelessNetworkBase.client[0].wlan[0].mac.dcf.channelAccess.pendingQueue dataCapacity -1b
attr unit b
par MMSWirelessNetworkBase.client[0].wlan[0].mac.dcf.channelAccess.pendingQueue dropperClass "\"inet::queueing::PacketAtCollectionEndDropper\""
par MMSWirelessNetworkBase.client[0].wlan[0].mac.dcf.channelAccess.pendingQueue comparatorClass "\"inet::ieee80211::MgmtOverDataComparator\""
par MMSWirelessNetworkBase.client[0].wlan[0].mac.dcf.channelAccess.pendingQueue bufferModule "\"\""
scalar MMSWirelessNetworkBase.client[0].wlan[0].mac.dcf.channelAccess.pendingQueue queueLength:last 0
attr autoWarmupFilter false
attr interpolationmode sample-hold
attr recordingmode last
attr source "warmup(atomic(constant0(packetPushEnded) + count(packetPushStarted) - count(packetPulled) - count(packetRemoved) - count(packetDropped)))"
attr title "queue length, last"
attr unit pk
scalar MMSWirelessNetworkBase.client[0].wlan[0].mac.dcf.channelAccess.pendingQueue queueLength:max 2
attr autoWarmupFilter false
attr interpolationmode sample-hold
attr recordingmode max
attr source "warmup(atomic(constant0(packetPushEnded) + count(packetPushStarted) - count(packetPulled) - count(packetRemoved) - count(packetDropped)))"
attr title "queue length, max"
attr unit pk
scalar MMSWirelessNetworkBase.client[0].wlan[0].mac.dcf.channelAccess.pendingQueue queueLength:timeavg 0.0045249841294242
attr autoWarmupFilter false
attr interpolationmode sample-hold
attr recordingmode timeavg
attr source "warmup(atomic(constant0(packetPushEnded) + count(packetPushStarted) - count(packetPulled) - count(packetRemoved) - count(packetDropped)))"
attr title "queue length, timeavg"
attr unit pk
scalar MMSWirelessNetworkBase.client[0].wlan[0].mac.dcf.channelAccess.pendingQueue queueBitLength:last 0
attr autoWarmupFilter false
attr interpolationmode sample-hold
attr recordingmode last
attr source "warmup(atomic(constant0(packetPushEnded) + sum(packetLength(packetPushStarted)) - sum(packetLength(packetPulled)) - sum(packetLength(packetRemoved)) - sum(packetLength(packetDropped))))"
attr title "queue bit length, last"
attr unit b
scalar MMSWirelessNetworkBase.client[0].wlan[0].mac.dcf.channelAccess.pendingQueue queueBitLength:max 1456
attr autoWarmupFilter false
attr interpolationmode sample-hold
attr recordingmode max
attr source "warmup(atomic(constant0(packetPushEnded) + sum(packetLength(packetPushStarted)) - sum(packetLength(packetPulled)) - sum(packetLength(packetRemoved)) - sum(packetLength(packetDropped))))"
attr title "queue bit length, max"
attr unit b
scalar MMSWirelessNetworkBase.client[0].wlan[0].mac.dcf.channelAccess.pendingQueue queueBitLength:timeavg 2.8557524938026
attr autoWarmupFilter false
attr interpolationmode sample-hold
attr recordingmode timeavg
attr source "warmup(atomic(constant0(packetPushEnded) + sum(packetLength(packetPushStarted)) - sum(packetLength(packetPulled)) - sum(packetLength(packetRemoved)) - sum(packetLength(packetDropped))))"
attr title "queue bit length, timeavg"
attr unit b
statistic MMSWirelessNetworkBase.client[0].wlan[0].mac.dcf.channelAccess.pendingQueue queueingTime:histogram
field count 2101
field mean 0.00025775325741647
field stddev 0.00025815010099198
field min 0
field max 0.001262499377
field sum 0.541539593832
field sqrsum 0.00027953069107875
attr interpolationmode none
attr recordingmode histogram
attr source queueingTime(packetPulled)
attr title "queueing times"
attr unit s
bin	-inf	0
bin	0	779
bin	2e-05	7
bin	4e-05	3
bin	6e-05	5
bin	8e-05	39
bin	0.0001	37
bin	0.00012	39
bin	0.00014	56
bin	0.00016	43
bin	0.00018	36
bin	0.0002	45
bin	0.00022	40
bin	0.00024	51
bin	0.00026	44
bin	0.00028	30
bin	0.0003	52
bin	0.00032	36
bin	0.00034	33
bin	0.00036	44
bin	0.00038	38
bin	0.0004	33
bin	0.00042	41
bin	0.00044	39
bin	0.00046	39
bin	0.00048	32
bin	0.0005	29
bin	0.00052	31
bin	0.00054	43
bin	0.00056	45
bin	0.00058	39
bin	0.0006	42
bin	0.00062	31
bin	0.00064	31
bin	0.00066	38
bin	0.00068	34
bin	0.0007	28
bin	0.00072	6
bin	0.00074	3
bin	0.00076	6
bin	0.00078	5
bin	0.0008	7
bin	0.00082	9
bin	0.00084	11
bin	0.00086	1
bin	0.00088	5
bin	0.0009	3
bin	0.00092	2
bin	0.00094	4
bin	0.00096	2
bin	0.00098	2
bin	0.001	1
bin	0.00102	1
bin	0.00104	0
bin	0.00106	0
bin	0.00108	0
bin	0.0011	0
bin	0.00112	0
bin	0.00114	0
bin	0.00116	0
bin	0.00118	0
bin	0.0012	0
bin	0.00122	0
bin	0.00124	0
bin	0.00126	1
bin	0.00128	0
scalar MMSWirelessNetworkBase.client[0].wlan[0].mac.dcf.channelAccess.pendingQueue outgoingPackets:count 2101
attr recordingmode count
attr source packetPulled
attr title "outgoing packets, count"
attr unit pk
scalar MMSWirelessNetworkBase.client[0].wlan[0].mac.dcf.channelAccess.pendingQueue outgoingPacketLengths:sum 1494880
attr interpolationmode none
attr recordingmode sum
attr source packetLength(packetPulled)
attr title "outgoing packet lengths, sum"
attr unit b
statistic MMSWirelessNetworkBase.client[0].wlan[0].mac.dcf.channelAccess.pendingQueue outgoingPacketLengths:histogram
field count 2101
field mean 711.50880533079
field stddev 120.48170990831
field min 256
field max 848
field sum 1494880
field sqrsum 1094103552
attr interpolationmode none
attr recordingmode histogram
attr source packetLength(packetPulled)
attr title "outgoing packet lengths"
attr unit b
bin	-inf	0
bin	100	0
bin	110	0
bin	120	0
bin	130	0
bin	140	0
bin	150	0
bin	160	0
bin	170	0
bin	180	0
bin	190	0
bin	200	0
bin	210	0
bin	220	0
bin	230	0
bin	240	0
bin	250	1
bin	260	0
bin	270	2
bin	280	1
bin	290	0
bin	300	0
bin	310	0
bin	320	0
bin	330	0
bin	340	0
bin	350	0
bin	360	0
bin	370	0
bin	380	0
bin	390	0
bin	400	0
bin	410	0
bin	420	0
bin	430	0
bin	440	0
bin	450	0
bin	460	0
bin	470	0
bin	480	0
bin	490	0
bin	500	0
bin	510	1
bin	520	0
bin	530	0
bin	540	0
bin	550	0
bin	560	0
bin	570	0
bin	580	0
bin	590	0
bin	600	1183
bin	610	0
bin	620	0
bin	630	0
bin	640	1
bin	650	0
bin	660	0
bin	670	0
bin	680	0
bin	690	0
bin	700	0
bin	710	0
bin	720	0
bin	730	0
bin	740	0
bin	750	0
bin	760	0
bin	770	0
bin	780	0
bin	790	0
bin	800	0
bin	810	0
bin	820	0
bin	830	0
bin	840	912
bin	850	0
bin	860	0
bin	870	0
bin	880	0
bin	890	0
bin	900	0
bin	910	0
bin	920	0
bin	930	0
bin	940	0
bin	950	0
bin	960	0
bin	970	0
bin	980	0
bin	990	0
bin	1000	0
statistic MMSWirelessNetworkBase.client[0].wlan[0].mac.dcf.channelAccess.pendingQueue flowQueueingTime:histogram
field count 0
field mean -nan
field stddev nan
field min nan
field max nan
field sum 0
field sqrsum 0
attr interpolationmode none
attr recordingmode histogram
attr source queueingTime(demuxFlow(packetPulled))
attr title "flow queueing times"
attr unit s
bin	-inf	0
bin	0	0
bin	1	0
scalar MMSWirelessNetworkBase.client[0].wlan[0].mac.dcf.channelAccess.pendingQueue incomingPackets:count 2101
attr recordingmode count
attr source packetPushStarted
attr title "incoming packets, count"
attr unit pk
scalar MMSWirelessNetworkBase.client[0].wlan[0].mac.dcf.channelAccess.pendingQueue incomingPacketLengths:sum 1494880
attr interpolationmode none
attr recordingmode sum
attr source packetLength(packetPushStarted)
attr title "incoming packet lengths, sum"
attr unit b
statistic MMSWirelessNetworkBase.client[0].wlan[0].mac.dcf.channelAccess.pendingQueue incomingPacketLengths:histogram
field count 2101
field mean 711.50880533079
field stddev 120.48170990831
field min 256
field max 848
field sum 1494880
field sqrsum 1094103552
attr interpolationmode none
attr recordingmode histogram
attr source packetLength(packetPushStarted)
attr title "incoming packet lengths"
attr unit b
bin	-inf	0
bin	100	0
bin	110	0
bin	120	0
bin	130	0
bin	140	0
bin	150	0
bin	160	0
bin	170	0
bin	180	0
bin	190	0
bin	200	0
bin	210	0
bin	220	0
bin	230	0
bin	240	0
bin	250	1
bin	260	0
bin	270	2
bin	280	1
bin	290	0
bin	300	0
bin	310	0
bin	320	0
bin	330	0
bin	340	0
bin	350	0
bin	360	0
bin	370	0
bin	380	0
bin	390	0
bin	400	0
bin	410	0
bin	420	0
bin	430	0
bin	440	0
bin	450	0
bin	460	0
bin	470	0
bin	480	0
bin	490	0
bin	500	0
bin	510	1
bin	520	0
bin	530	0
bin	540	0
bin	550	0
bin	560	0
bin	570	0
bin	580	0
bin	590	0
bin	600	1183
bin	610	0
bin	620	0
bin	630	0
bin	640	1
bin	650	0
bin	660	0
bin	670	0
bin	680	0
bin	690	0
bin	700	0
bin	710	0
bin	720	0
bin	730	0
bin	740	0
bin	750	0
bin	760	0
bin	770	0
bin	780	0
bin	790	0
bin	800	0
bin	810	0
bin	820	0
bin	830	0
bin	840	912
bin	850	0
bin	860	0
bin	870	0
bin	880	0
bin	890	0
bin	900	0
bin	910	0
bin	920	0
bin	930	0
bin	940	0
bin	950	0
bin	960	0
bin	970	0
bin	980	0
bin	990	0
bin	1000	0
scalar MMSWirelessNetworkBase.client[0].wlan[0].mac.dcf.channelAccess.pendingQueue droppedPacketsQueueOverflow:count 0
attr interpolationmode none
attr recordingmode count
attr source packetDropReasonIsQueueOverflow(packetDropped)
attr title "dropped packets: queue overflow, count"
attr unit pk
scalar MMSWirelessNetworkBase.client[0].wlan[0].mac.dcf.channelAccess.pendingQueue droppedPacketLengthsQueueOverflow:sum 0
attr interpolationmode none
attr recordingmode sum
attr source packetLength(packetDropReasonIsQueueOverflow(packetDropped))
attr title "dropped packet lengths: queue overflow, sum"
attr unit b
par MMSWirelessNetworkBase.client[0].wlan[0].mac.dcf.channelAccess.inProgressFrames typename "\"inet.linklayer.ieee80211.mac.queue.InProgressFrames\""
par MMSWirelessNetworkBase.client[0].wlan[0].mac.dcf.channelAccess.inProgressFrames pendingQueueModule "\"^.pendingQueue\""
par MMSWirelessNetworkBase.client[0].wlan[0].mac.dcf.channelAccess.inProgressFrames originatorMacDataServiceModule "\"^.^.originatorMacDataService\""
par MMSWirelessNetworkBase.client[0].wlan[0].mac.dcf.channelAccess.inProgressFrames ackHandlerModule "\"^.^.ackHandler\""
statistic MMSWirelessNetworkBase.client[0].wlan[0].mac.dcf.channelAccess.inProgressFrames queueingTime:histogram
field count 2101
field mean 8.9845734415993e-05
field stddev 5.5392017834516e-05
field min 3.8e-05
field max 0.00185828218
field sum 0.188765888008
field sqrsum 2.3403188684303e-05
attr interpolationmode none
attr recordingmode histogram
attr source queueingTime(packetDequeued)
attr title "queueing times"
[...]
attr interpolationmode none
attr recordingmode sum(packetBytes)
attr source ieee80211NotRetry(packetSentToPeer)
attr title "packets sent: without retry, sum(packetBytes)"
scalar MMSWirelessNetworkBase.accessPoint.wlan[0].mac.dcf packetDrop:count 0
attr interpolationmode none
attr recordingmode count
attr source packetDropped
attr title "packet drops, count"
scalar MMSWirelessNetworkBase.accessPoint.wlan[0].mac.dcf packetDrop:sum(packetBytes) 0
attr interpolationmode none
attr recordingmode sum(packetBytes)
attr source packetDropped
attr title "packet drops, sum(packetBytes)"
scalar MMSWirelessNetworkBase.accessPoint.wlan[0].mac.dcf packetDropNotAddressedToUs:count 0
attr interpolationmode none
attr recordingmode count
attr source packetDropReasonIsNotAddressedToUs(packetDropped)
attr title "packet drops: not addressed to us, count"
scalar MMSWirelessNetworkBase.accessPoint.wlan[0].mac.dcf packetDropNotAddressedToUs:sum(packetBytes) 0
attr interpolationmode none
attr recordingmode sum(packetBytes)
attr source packetDropReasonIsNotAddressedToUs(packetDropped)
attr title "packet drops: not addressed to us, sum(packetBytes)"
scalar MMSWirelessNetworkBase.accessPoint.wlan[0].mac.dcf packetDropQueueOverflow:count 0
attr interpolationmode none
attr recordingmode count
attr source packetDropReasonIsQueueOverflow(packetDropped)
attr title "packet drops: queue overflow, count"
scalar MMSWirelessNetworkBase.accessPoint.wlan[0].mac.dcf packetDropQueueOverflow:sum(packetBytes) 0
attr interpolationmode none
attr recordingmode sum(packetBytes)
attr source packetDropReasonIsQueueOverflow(packetDropped)
attr title "packet drops: queue overflow, sum(packetBytes)"
scalar MMSWirelessNetworkBase.accessPoint.wlan[0].mac.dcf packetDropRetryLimitReached:count 0
attr interpolationmode none
attr recordingmode count
attr source packetDropReasonIsRetryLimitReached(packetDropped)
attr title "packet drops: retry limit reached, count"
scalar MMSWirelessNetworkBase.accessPoint.wlan[0].mac.dcf packetDropRetryLimitReached:sum(packetBytes) 0
attr interpolationmode none
attr recordingmode sum(packetBytes)
attr source packetDropReasonIsRetryLimitReached(packetDropped)
attr title "packet drops: retry limit reached, sum(packetBytes)"
scalar MMSWirelessNetworkBase.accessPoint.wlan[0].mac.dcf linkBroken:count 0
attr interpolationmode none
attr recordingmode count
attr title "link breaks, count"
par MMSWirelessNetworkBase.accessPoint.wlan[0].mac.ds typename "\"inet.linklayer.ieee80211.mac.Ds\""
par MMSWirelessNetworkBase.accessPoint.wlan[0].mac.ds mibModule "\"MMSWirelessNetworkBase.accessPoint.wlan[0].mib\""
par MMSWirelessNetworkBase.accessPoint.wlan[0].mac.rx typename "\"inet.linklayer.ieee80211.mac.Rx\""
par MMSWirelessNetworkBase.accessPoint.wlan[0].mac.tx typename "\"inet.linklayer.ieee80211.mac.Tx\""
par MMSWirelessNetworkBase.accessPoint.wlan[0].mac.tx rxModule "\"^.rx\""
par MMSWirelessNetworkBase.accessPoint.wlan[0].mac typename "\"inet.linklayer.ieee80211.mac.Ieee80211Mac\""
par MMSWirelessNetworkBase.accessPoint.wlan[0].mac interfaceTableModule "\"MMSWirelessNetworkBase.accessPoint.interfaceTable\""
par MMSWirelessNetworkBase.accessPoint.wlan[0].mac mibModule "\"MMSWirelessNetworkBase.accessPoint.wlan[0].mib\""
par MMSWirelessNetworkBase.accessPoint.wlan[0].mac modeSet "\"g(mixed)\""
attr enum a,b,g(erp),g(mixed),n(mixed-2.4Ghz),p,ac
par MMSWirelessNetworkBase.accessPoint.wlan[0].mac fcsMode "\"declared\""
attr enum declared,computed
par MMSWirelessNetworkBase.accessPoint.wlan[0].mac initialRadioMode "\"receiver\""
attr enum off,sleep,receiver,transmitter,transceiver
par MMSWirelessNetworkBase.accessPoint.wlan[0].mac mtu 2304B
attr unit B
par MMSWirelessNetworkBase.accessPoint.wlan[0].mac qosStation false
scalar MMSWirelessNetworkBase.accessPoint.wlan[0].mac packetReceivedFromLower:count 47232
attr interpolationmode none
attr recordingmode count
attr title "packets received from lower layer, count"
scalar MMSWirelessNetworkBase.accessPoint.wlan[0].mac packetReceivedFromLower:sum(packetBytes) 2761782
attr interpolationmode none
attr recordingmode sum(packetBytes)
attr title "packets received from lower layer, sum(packetBytes)"
scalar MMSWirelessNetworkBase.accessPoint.wlan[0].mac packetSentToLower:count 48432
attr interpolationmode none
attr recordingmode count
attr title "packets sent to lower layer, count"
scalar MMSWirelessNetworkBase.accessPoint.wlan[0].mac packetSentToLower:sum(packetBytes) 2819506
attr interpolationmode none
attr recordingmode sum(packetBytes)
attr title "packets sent to lower layer, sum(packetBytes)"
scalar MMSWirelessNetworkBase.accessPoint.wlan[0].mac packetReceivedFromUpper:count 0
attr interpolationmode none
attr recordingmode count
attr title "packets received from upper layer, count"
scalar MMSWirelessNetworkBase.accessPoint.wlan[0].mac packetReceivedFromUpper:sum(packetBytes) 0
attr interpolationmode none
attr recordingmode sum(packetBytes)
attr title "packets received from upper layer, sum(packetBytes)"
scalar MMSWirelessNetworkBase.accessPoint.wlan[0].mac packetSentToUpper:count 4
attr interpolationmode none
attr recordingmode count
attr title "packets sent to upper layer, count"
scalar MMSWirelessNetworkBase.accessPoint.wlan[0].mac packetSentToUpper:sum(packetBytes) 144
attr interpolationmode none
attr recordingmode sum(packetBytes)
attr title "packets sent to upper layer, sum(packetBytes)"
scalar MMSWirelessNetworkBase.accessPoint.wlan[0].mac packetDrop:count 4
attr interpolationmode none
attr recordingmode count
attr source packetDropped
attr title "packet drops, count"
scalar MMSWirelessNetworkBase.accessPoint.wlan[0].mac packetDrop:sum(packetBytes) 382
attr interpolationmode none
attr recordingmode sum(packetBytes)
attr source packetDropped
attr title "packet drops, sum(packetBytes)"
scalar MMSWirelessNetworkBase.accessPoint.wlan[0].mac packetDropIncorrectlyReceived:count 4
attr interpolationmode none
attr recordingmode count
attr source packetDropReasonIsIncorrectlyReceived(packetDropped)
attr title "packet drops: incorrectly received, count"
scalar MMSWirelessNetworkBase.accessPoint.wlan[0].mac packetDropIncorrectlyReceived:sum(packetBytes) 382
attr interpolationmode none
attr recordingmode sum(packetBytes)
attr source packetDropReasonIsIncorrectlyReceived(packetDropped)
attr title "packet drops: incorrectly received, sum(packetBytes)"
scalar MMSWirelessNetworkBase.accessPoint.wlan[0].mac packetDropNotAddressedToUs:count 0
attr interpolationmode none
attr recordingmode count
attr source packetDropReasonIsNotAddressedToUs(packetDropped)
attr title "packet drops: not addressed to us, count"
scalar MMSWirelessNetworkBase.accessPoint.wlan[0].mac packetDropNotAddressedToUs:sum(packetBytes) 0
attr interpolationmode none
attr recordingmode sum(packetBytes)
attr source packetDropReasonIsNotAddressedToUs(packetDropped)
attr title "packet drops: not addressed to us, sum(packetBytes)"
scalar MMSWirelessNetworkBase.accessPoint.wlan[0].mac packetDropQueueOverflow:count 0
attr interpolationmode none
attr recordingmode count
attr source packetDropReasonIsQueueOverflow(packetDropped)
attr title "packet drops: queue overflow, count"
scalar MMSWirelessNetworkBase.accessPoint.wlan[0].mac packetDropQueueOverflow:sum(packetBytes) 0
attr interpolationmode none
attr recordingmode sum(packetBytes)
attr source packetDropReasonIsQueueOverflow(packetDropped)
attr title "packet drops: queue overflow, sum(packetBytes)"
scalar MMSWirelessNetworkBase.accessPoint.wlan[0].mac packetDropRetryLimitReached:count 0
attr interpolationmode none
attr recordingmode count
attr source packetDropReasonIsRetryLimitReached(packetDropped)
attr title "packet drops: retry limit reached, count"
scalar MMSWirelessNetworkBase.accessPoint.wlan[0].mac packetDropRetryLimitReached:sum(packetBytes) 0
attr interpolationmode none
attr recordingmode sum(packetBytes)
attr source packetDropReasonIsRetryLimitReached(packetDropped)
attr title "packet drops: retry limit reached, sum(packetBytes)"
scalar MMSWirelessNetworkBase.accessPoint.wlan[0].mac packetDropDuplicateDetected:count 0
attr interpolationmode none
attr recordingmode count
attr source packetDropReasonIsDuplicateDetected(packetDropped)
attr title "packet drops: duplicate detected, count"
scalar MMSWirelessNetworkBase.accessPoint.wlan[0].mac packetDropDuplicateDetected:sum(packetBytes) 0
attr interpolationmode none
attr recordingmode sum(packetBytes)
attr source packetDropReasonIsDuplicateDetected(packetDropped)
attr title "packet drops: duplicate detected, sum(packetBytes)"
scalar MMSWirelessNetworkBase.accessPoint.wlan[0].mac packetDropOther:count 0
attr interpolationmode none
attr recordingmode count
attr source packetDropReasonIsOther(packetDropped)
attr title "packet drops: other, count"
scalar MMSWirelessNetworkBase.accessPoint.wlan[0].mac packetDropOther:sum(packetBytes) 0
attr interpolationmode none
attr recordingmode sum(packetBytes)
attr source packetDropReasonIsOther(packetDropped)
attr title "packet drops: other, sum(packetBytes)"
scalar MMSWirelessNetworkBase.accessPoint.wlan[0].mac linkBroken:count 0
attr interpolationmode none
attr recordingmode count
attr title "link breaks, count"
par MMSWirelessNetworkBase.accessPoint.wlan[0].radio.antenna typename "\"inet.physicallayer.wireless.common.antenna.IsotropicAntenna\""
par MMSWirelessNetworkBase.accessPoint.wlan[0].radio.antenna mobilityModule "\"^.^.^.mobility\""
par MMSWirelessNetworkBase.accessPoint.wlan[0].radio.antenna numAntennas 1
par MMSWirelessNetworkBase.accessPoint.wlan[0].radio.transmitter typename "\"inet.physicallayer.wireless.ieee80211.packetlevel.Ieee80211ScalarTransmitter\""
par MMSWirelessNetworkBase.accessPoint.wlan[0].radio.transmitter preambleDuration -1s
attr unit s
par MMSWirelessNetworkBase.accessPoint.wlan[0].radio.transmitter headerLength 192b
attr unit b
par MMSWirelessNetworkBase.accessPoint.wlan[0].radio.transmitter bitrate -1bps
attr unit bps
par MMSWirelessNetworkBase.accessPoint.wlan[0].radio.transmitter power 0.008W
attr unit W
par MMSWirelessNetworkBase.accessPoint.wlan[0].radio.transmitter centerFrequency 2.412e+09Hz
attr unit Hz
par MMSWirelessNetworkBase.accessPoint.wlan[0].radio.transmitter bandwidth "nan Hz"
attr unit Hz
par MMSWirelessNetworkBase.accessPoint.wlan[0].radio.transmitter modulation "\"BPSK\""
par MMSWirelessNetworkBase.accessPoint.wlan[0].radio.transmitter opMode "\"g(mixed)\""
attr enum a,b,g(erp),g(mixed),n(mixed-2.4Ghz),p,ac
par MMSWirelessNetworkBase.accessPoint.wlan[0].radio.transmitter bandName "\"2.4 GHz\""
attr enum "2.4 GHz,5 GHz,5 GHz (20 MHz),5 GHz (40 MHz),5 GHz (80 MHz),5 GHz (160 MHz),5.9 GHz"
par MMSWirelessNetworkBase.accessPoint.wlan[0].radio.transmitter channelNumber 0
par MMSWirelessNetworkBase.accessPoint.wlan[0].radio.receiver.errorModel typename "\"inet.physicallayer.wireless.ieee80211.packetlevel.errormodel.Ieee80211NistErrorModel\""
par MMSWirelessNetworkBase.accessPoint.wlan[0].radio.receiver.errorModel corruptionMode "\"packet\""
attr enum packet,chunk,byte,bit
par MMSWirelessNetworkBase.accessPoint.wlan[0].radio.receiver.errorModel snirMode "\"min\""
attr unit min,mean
par MMSWirelessNetworkBase.accessPoint.wlan[0].radio.receiver.errorModel snirOffset 0dB
attr unit dB
par MMSWirelessNetworkBase.accessPoint.wlan[0].radio.receiver typename "\"inet.physicallayer.wireless.ieee80211.packetlevel.Ieee80211ScalarReceiver\""
par MMSWirelessNetworkBase.accessPoint.wlan[0].radio.receiver snirThreshold 4dB
attr unit dB
par MMSWirelessNetworkBase.accessPoint.wlan[0].radio.receiver snirThresholdMode "\"min\""
attr unit min,mean
par MMSWirelessNetworkBase.accessPoint.wlan[0].radio.receiver energyDetection -85dBm
attr unit dBm
par MMSWirelessNetworkBase.accessPoint.wlan[0].radio.receiver sensitivity -85dBm
attr unit dBm
par MMSWirelessNetworkBase.accessPoint.wlan[0].radio.receiver centerFrequency 2.412e+09Hz
attr unit Hz
par MMSWirelessNetworkBase.accessPoint.wlan[0].radio.receiver bandwidth 2.2e+07Hz
attr unit Hz
par MMSWirelessNetworkBase.accessPoint.wlan[0].radio.receiver modulation "\"BPSK\""
par MMSWirelessNetworkBase.accessPoint.wlan[0].radio.receiver opMode "\"g(mixed)\""
attr enum a,b,g(erp),g(mixed),n(mixed-2.4Ghz),p,ac
par MMSWirelessNetworkBase.accessPoint.wlan[0].radio.receiver bandName "\"2.4 GHz\""
attr enum "2.4 GHz,5 GHz,5 GHz (20 MHz),5 GHz (40 MHz),5 GHz (80 MHz),5 GHz (160 MHz),5.9 GHz"
par MMSWirelessNetworkBase.accessPoint.wlan[0].radio.receiver channelNumber 0
par MMSWirelessNetworkBase.accessPoint.wlan[0].radio typename "\"inet.physicallayer.wireless.ieee80211.packetlevel.Ieee80211ScalarRadio\""
par MMSWirelessNetworkBase.accessPoint.wlan[0].radio radioMediumModule "\"radioMedium\""
par MMSWirelessNetworkBase.accessPoint.wlan[0].radio energySourceModule "\"\""
par MMSWirelessNetworkBase.accessPoint.wlan[0].radio initialRadioMode "\"off\""
attr enum off,sleep,receiver,transmitter,transceiver
par MMSWirelessNetworkBase.accessPoint.wlan[0].radio switchingTimes "\"ms 0 0 0 0 0 0 0 0 0 0 0 0 0 0 0 0 0 0 0 0 0 0 0 0 0\""
par MMSWirelessNetworkBase.accessPoint.wlan[0].radio sendRawBytes false
par MMSWirelessNetworkBase.accessPoint.wlan[0].radio separateTransmissionParts false
par MMSWirelessNetworkBase.accessPoint.wlan[0].radio separateReceptionParts false
par MMSWirelessNetworkBase.accessPoint.wlan[0].radio displayCommunicationRange true
par MMSWirelessNetworkBase.accessPoint.wlan[0].radio displayInterferenceRange false
par MMSWirelessNetworkBase.accessPoint.wlan[0].radio centerFrequency 2.412e+09Hz
attr unit Hz
par MMSWirelessNetworkBase.accessPoint.wlan[0].radio bandwidth "nan Hz"
attr unit Hz
par MMSWirelessNetworkBase.accessPoint.wlan[0].radio signalAnalogRepresentation "\"scalar\""
attr enum scalar,dimensional
par MMSWirelessNetworkBase.accessPoint.wlan[0].radio opMode "\"g(mixed)\""
attr enum a,b,g(erp),g(mixed),n(mixed-2.4Ghz),p,ac
par MMSWirelessNetworkBase.accessPoint.wlan[0].radio bandName "\"2.4 GHz\""
attr enum "2.4 GHz,5 GHz,5 GHz (20 MHz),5 GHz (40 MHz),5 GHz (80 MHz),5 GHz (160 MHz),5.9 GHz"
par MMSWirelessNetworkBase.accessPoint.wlan[0].radio channelNumber 0
par MMSWirelessNetworkBase.accessPoint.wlan[0].radio crcMode "\"declared\""
attr enum declared,computed
statistic MMSWirelessNetworkBase.accessPoint.wlan[0].radio radioChannel:histogram
field count 1
field mean 0
field stddev nan
field min 0
field max 0
field sum 0
field sqrsum 0
attr interpolationmode sample-hold
attr recordingmode histogram
attr source radioChannelChanged
attr title "Radio channel"
bin	-inf	0
bin	-0.5	0
bin	-0.48	0
bin	-0.46	0
bin	-0.44	0
bin	-0.42	0
bin	-0.4	0
bin	-0.38	0
bin	-0.36	0
bin	-0.34	0
bin	-0.32	0
bin	-0.3	0
bin	-0.28	0
bin	-0.26	0
bin	-0.24	0
bin	-0.22	0
bin	-0.2	0
bin	-0.18	0
bin	-0.16	0
bin	-0.14	0
bin	-0.12	0
bin	-0.1	0
bin	-0.08	0
bin	-0.06	0
bin	-0.04	0
bin	-0.02	0
bin	0	1
bin	0.02	0
bin	0.04	0
bin	0.06	0
bin	0.08	0
bin	0.1	0
bin	0.12	0
bin	0.14	0
bin	0.16	0
bin	0.18	0
bin	0.2	0
bin	0.22	0
bin	0.24	0
bin	0.26	0
bin	0.28	0
bin	0.3	0
bin	0.32	0
bin	0.34	0
bin	0.36	0
bin	0.38	0
bin	0.4	0
bin	0.42	0
bin	0.44	0
bin	0.46	0
bin	0.48	0
bin	0.5	0
scalar MMSWirelessNetworkBase.accessPoint.wlan[0].radio radioMode:count 96867
attr interpolationmode sample-hold
attr recordingmode count
attr source radioModeChanged
attr title "Radio mode, count"
scalar MMSWirelessNetworkBase.accessPoint.wlan[0].radio receptionState:count 191337
attr interpolationmode sample-hold
attr recordingmode count
attr source receptionStateChanged
attr title "Radio reception state, count"
scalar MMSWirelessNetworkBase.accessPoint.wlan[0].radio transmissionState:count 193728
attr interpolationmode sample-hold
attr recordingmode count
attr source transmissionStateChanged
attr title "Radio transmission state, count"
statistic MMSWirelessNetworkBase.accessPoint.wlan[0].radio minSnir:histogram
field count 47232
field mean 1815.7368067195
field stddev 168.89384210112
field min 0.40293463371324
field max 2086.9604033
field sum 85760880.854973
field sqrsum 157066458355.35
attr recordingmode histogram
attr source minimumSnir(packetSentToUpper)
attr title "Min SNIR"
bin	-inf	0
bin	0	4
bin	50	0
bin	100	0
bin	150	0
bin	200	0
bin	250	0
bin	300	0
bin	350	0
bin	400	0
bin	450	0
bin	500	0
bin	550	0
bin	600	0
bin	650	0
bin	700	0
bin	750	0
bin	800	0
bin	850	0
bin	900	0
bin	950	0
bin	1000	0
bin	1050	0
bin	1100	0
bin	1150	0
bin	1200	0
bin	1250	0
bin	1300	0
bin	1350	0
bin	1400	0
bin	1450	0
bin	1500	10815
bin	1550	0
bin	1600	0
bin	1650	0
bin	1700	0
bin	1750	4289
bin	1800	0
bin	1850	27923
bin	1900	0
bin	1950	0
bin	2000	0
bin	2050	4201
bin	2100	0
bin	2150	0
bin	2200	0
bin	2250	0
bin	2300	0
bin	2350	0
bin	2400	0
bin	2450	0
bin	2500	0
bin	2550	0
bin	2600	0
bin	2650	0
statistic MMSWirelessNetworkBase.accessPoint.wlan[0].radio packetErrorRate:histogram
field count 47232
field mean 8.4688346883469e-05
field stddev 0.0092023349038441
field min 0
field max 1
field sum 4
field sqrsum 4
attr recordingmode histogram
attr source packetErrorRate(packetSentToUpper)
attr title "Packet error rate"
bin	-inf	0
bin	0	47228
bin	1	4
bin	2	0
statistic MMSWirelessNetworkBase.accessPoint.wlan[0].radio bitErrorRate:histogram
field count 0
field mean -nan
field stddev nan
field min nan
field max nan
field sum 0
field sqrsum 0
attr recordingmode histogram
attr source bitErrorRate(packetSentToUpper)
attr title "Bit error rate"
bin	-inf	0
bin	0	0
bin	1	0
statistic MMSWirelessNetworkBase.accessPoint.wlan[0].radio symbolErrorRate:histogram
field count 0
field mean -nan
field stddev nan
field min nan
field max nan
field sum 0
field sqrsum 0
attr recordingmode histogram
attr source symbolErrorRate(packetSentToUpper)
attr title "Symbol error rate"
bin	-inf	0
bin	0	0
bin	1	0
par MMSWirelessNetworkBase.accessPoint.wlan[0] typename "\"inet.linklayer.ieee80211.Ieee80211Interface\""
par MMSWirelessNetworkBase.accessPoint.wlan[0] displayStringTextFormat "\"%a (%i)\\n%m\""
par MMSWirelessNetworkBase.accessPoint.wlan[0] recordPcap false
par MMSWirelessNetworkBase.accessPoint.wlan[0] numPcapRecorders 0
par MMSWirelessNetworkBase.accessPoint.wlan[0] interfaceTableModule "\"MMSWirelessNetworkBase.accessPoint.interfaceTable\""
par MMSWirelessNetworkBase.accessPoint.wlan[0] energySourceModule "\"\""
par MMSWirelessNetworkBase.accessPoint.wlan[0] opMode "\"g(mixed)\""
attr enum a,b,g(erp),g(mixed),n(mixed-2.4Ghz),p,ac
par MMSWirelessNetworkBase.accessPoint.wlan[0] address "\"0A-AA-00-00-00-06\""
attr mutable ""
par MMSWirelessNetworkBase.accessPoint.wlan[0] protocol "\"ethernetmac\""
par MMSWirelessNetworkBase.accessPoint.wlan[0] bitrate -1bps
attr unit bps
scalar MMSWirelessNetworkBase.accessPoint.wlan[0] packetDropInterfaceDown:count 0
attr interpolationmode none
attr recordingmode count
attr source packetDropReasonIsInterfaceDown(packetDropped)
attr title "packet drops: interface down, count"
scalar MMSWirelessNetworkBase.accessPoint.wlan[0] packetDropInterfaceDown:sum(packetBytes) 0
attr interpolationmode none
attr recordingmode sum(packetBytes)
attr source packetDropReasonIsInterfaceDown(packetDropped)
attr title "packet drops: interface down, sum(packetBytes)"
scalar MMSWirelessNetworkBase.accessPoint.wlan[0] packetDropNoCarrier:count 0
attr interpolationmode none
attr recordingmode count
attr source packetDropReasonIsNoCarrier(packetDropped)
attr title "packet drops: no carrier, count"
scalar MMSWirelessNetworkBase.accessPoint.wlan[0] packetDropNoCarrier:sum(packetBytes) 0
attr interpolationmode none
attr recordingmode sum(packetBytes)
attr source packetDropReasonIsNoCarrier(packetDropped)
attr title "packet drops: no carrier, sum(packetBytes)"
par MMSWirelessNetworkBase.accessPoint typename "\"inet.node.wireless.AccessPoint\""
par MMSWirelessNetworkBase.accessPoint numWlanInterfaces 1
par MMSWirelessNetworkBase.accessPoint hasStatus false
par MMSWirelessNetworkBase.accessPoint fcsMode "\"declared\""
attr enum declared,computed
par MMSWirelessNetworkBase typename "\"tx_medium_exp.simulations.MMSWirelessNetworkBase\""
par MMSWirelessNetworkBase numClients 3

